Global frequency set at 1000000000000 ticks per second
src/mem/dram_interface.cc:690: warn: DRAM device capacity (8192 Mbytes) does not match the address range assigned (32 Mbytes)
src/base/statistics.hh:279: warn: One of the stats is a legacy stat. Legacy stat is a stat that does not belong to any statistics::Group. Legacy stat is deprecated.
board.remote_gdb: Listening for connections on port 7000
gem5 Simulator System.  https://www.gem5.org
gem5 is copyrighted software; use the --copyright option for details.

gem5 version 23.0.0.1--SSBSE Challeng Track
gem5 compiled Aug 13 2023 00:24:12
gem5 started Aug 25 2023 21:53:21
gem5 executing on fuzzer-03, pid 1411470
command line: /home/ubuntu/gem5-ssbse-challenge-2023/build/X86/gem5.opt /home/ubuntu/gem5-ssbse-challenge-2023/ssbse-challenge-examples/hello-custom-binary-Ex.py --isa X86 --input /home/ubuntu/experiment-2/output/default/queue//id:000492,src:000424+000070,time:16824108,execs:23457,op:cm-gem5.so,pos:0

warn: No dot file generated. Please install pydot to generate the dot file and pdf.
src/sim/simulate.cc:194: info: Entering event queue @ 0.  Starting simulation...
/home/ubuntu/experiment-2/binary/fuzz_1692375482267712097.c.o: /home/ubuntu/experiment-2/binary/fuzz_1692375482267712097.c.o: no version information available (required by /home/ubuntu/experiment-2/binary/fuzz_1692375482267712097.c.o)
Inconsistency detected by ld.so: ../sysdeps/x86_64/dl-machine.h: 541: elf_machine_rela_relative: Assertion `ELFW(R_TYPE) (reloc->r_info) == R_X86_64_RELATIVE' failed!
Exiting @ tick 752489757 because exiting with last active thread context.
