Global frequency set at 1000000000000 ticks per second
src/mem/dram_interface.cc:690: warn: DRAM device capacity (8192 Mbytes) does not match the address range assigned (32 Mbytes)
src/base/statistics.hh:279: warn: One of the stats is a legacy stat. Legacy stat is a stat that does not belong to any statistics::Group. Legacy stat is deprecated.
board.remote_gdb: Listening for connections on port 7001
gem5 Simulator System.  https://www.gem5.org
gem5 is copyrighted software; use the --copyright option for details.

gem5 version 23.0.0.1--SSBSE Challeng Track
gem5 compiled Aug 13 2023 00:24:12
gem5 started Aug 22 2023 17:37:13
gem5 executing on fuzzer-03, pid 532134
command line: /home/ubuntu/gem5-ssbse-challenge-2023/build/X86/gem5.opt /home/ubuntu/gem5-ssbse-challenge-2023/ssbse-challenge-examples/hello-custom-binary-Ex.py --isa X86 --input /home/ubuntu/experiment-5/output/default/crashes//id:000039,sig:06,src:000117+000407,time:67139030,execs:57994,op:cm-gem5.so,pos:0

warn: No dot file generated. Please install pydot to generate the dot file and pdf.
src/sim/simulate.cc:194: info: Entering event queue @ 0.  Starting simulation...
src/sim/mem_state.cc:443: info: Increasing stack size by one page.
src/sim/syscall_emul.cc:74: warn: ignoring syscall mprotect(...)
src/sim/syscall_emul.cc:74: warn: ignoring syscall mprotect(...)
src/sim/syscall_emul.cc:74: warn: ignoring syscall mprotect(...)
src/arch/x86/faults.cc:166: panic: Tried to write unmapped address 0x100004048.
PC: (0x10e6=>0x10ea).(0=>1), Instr:   MOVAPS_M_XMM : stfp   %xmm0_high, DS:[rax + rdx + 0x8]
Memory Usage: 229452 KBytes
Program aborted at tick 6508736748
--- BEGIN LIBC BACKTRACE ---
/home/ubuntu/gem5-ssbse-challenge-2023/build/X86/gem5.opt(+0x38b2663)[0x555d3d472663]
/home/ubuntu/gem5-ssbse-challenge-2023/build/X86/gem5.opt(+0x39060c9)[0x555d3d4c60c9]
/lib/x86_64-linux-gnu/libpthread.so.0(+0x14420)[0x7ff878821420]
/lib/x86_64-linux-gnu/libc.so.6(gsignal+0xcb)[0x7ff87795700b]
/lib/x86_64-linux-gnu/libc.so.6(abort+0x12b)[0x7ff877936859]
/home/ubuntu/gem5-ssbse-challenge-2023/build/X86/gem5.opt(+0xab5f45)[0x555d3a675f45]
/home/ubuntu/gem5-ssbse-challenge-2023/build/X86/gem5.opt(+0x2897ec9)[0x555d3c457ec9]
/home/ubuntu/gem5-ssbse-challenge-2023/build/X86/gem5.opt(+0x1f6f583)[0x555d3bb2f583]
/home/ubuntu/gem5-ssbse-challenge-2023/build/X86/gem5.opt(+0x1f55285)[0x555d3bb15285]
/home/ubuntu/gem5-ssbse-challenge-2023/build/X86/gem5.opt(+0x1f5bd78)[0x555d3bb1bd78]
/home/ubuntu/gem5-ssbse-challenge-2023/build/X86/gem5.opt(+0x1f69890)[0x555d3bb29890]
/home/ubuntu/gem5-ssbse-challenge-2023/build/X86/gem5.opt(+0x2940e74)[0x555d3c500e74]
/home/ubuntu/gem5-ssbse-challenge-2023/build/X86/gem5.opt(+0x1f5f997)[0x555d3bb1f997]
/home/ubuntu/gem5-ssbse-challenge-2023/build/X86/gem5.opt(+0x1f74361)[0x555d3bb34361]
/home/ubuntu/gem5-ssbse-challenge-2023/build/X86/gem5.opt(+0x31dff9f)[0x555d3cd9ff9f]
/home/ubuntu/gem5-ssbse-challenge-2023/build/X86/gem5.opt(+0x3280c4c)[0x555d3ce40c4c]
/home/ubuntu/gem5-ssbse-challenge-2023/build/X86/gem5.opt(+0x1f531f4)[0x555d3bb131f4]
/home/ubuntu/gem5-ssbse-challenge-2023/build/X86/gem5.opt(+0x38e3556)[0x555d3d4a3556]
/home/ubuntu/gem5-ssbse-challenge-2023/build/X86/gem5.opt(+0x395010d)[0x555d3d51010d]
/home/ubuntu/gem5-ssbse-challenge-2023/build/X86/gem5.opt(+0x3951e19)[0x555d3d511e19]
/home/ubuntu/gem5-ssbse-challenge-2023/build/X86/gem5.opt(+0x17f771b)[0x555d3b3b771b]
/home/ubuntu/gem5-ssbse-challenge-2023/build/X86/gem5.opt(+0xa626b9)[0x555d3a6226b9]
/lib/x86_64-linux-gnu/libpython3.8.so.1.0(+0x2a8748)[0x7ff878ada748]
/lib/x86_64-linux-gnu/libpython3.8.so.1.0(_PyEval_EvalFrameDefault+0x8dd8)[0x7ff8788aff48]
/lib/x86_64-linux-gnu/libpython3.8.so.1.0(_PyEval_EvalCodeWithName+0x8fb)[0x7ff8789fce4b]
/lib/x86_64-linux-gnu/libpython3.8.so.1.0(_PyFunction_Vectorcall+0x94)[0x7ff878ada124]
/lib/x86_64-linux-gnu/libpython3.8.so.1.0(+0x74d6d)[0x7ff8788a6d6d]
/lib/x86_64-linux-gnu/libpython3.8.so.1.0(_PyEval_EvalFrameDefault+0x7d86)[0x7ff8788aeef6]
/lib/x86_64-linux-gnu/libpython3.8.so.1.0(_PyEval_EvalCodeWithName+0x8fb)[0x7ff8789fce4b]
/lib/x86_64-linux-gnu/libpython3.8.so.1.0(_PyFunction_Vectorcall+0x94)[0x7ff878ada124]
/lib/x86_64-linux-gnu/libpython3.8.so.1.0(+0x74d6d)[0x7ff8788a6d6d]
/lib/x86_64-linux-gnu/libpython3.8.so.1.0(_PyEval_EvalFrameDefault+0xea8)[0x7ff8788a8018]
--- END LIBC BACKTRACE ---
For more info on how to address this issue, please visit https://www.gem5.org/documentation/general_docs/common-errors/ 

./mine-crash.sh: line 21: 532134 Aborted                 $gem5 $gem5_script --isa X86 --input $txt_file
