Global frequency set at 1000000000000 ticks per second
src/mem/dram_interface.cc:690: warn: DRAM device capacity (8192 Mbytes) does not match the address range assigned (32 Mbytes)
src/base/statistics.hh:279: warn: One of the stats is a legacy stat. Legacy stat is a stat that does not belong to any statistics::Group. Legacy stat is deprecated.
board.remote_gdb: Listening for connections on port 7000
gem5 Simulator System.  https://www.gem5.org
gem5 is copyrighted software; use the --copyright option for details.

gem5 version 23.0.0.1--SSBSE Challeng Track
gem5 compiled Aug 13 2023 00:24:12
gem5 started Aug 26 2023 08:22:05
gem5 executing on fuzzer-03, pid 1453955
command line: /home/ubuntu/gem5-ssbse-challenge-2023/build/X86/gem5.opt /home/ubuntu/gem5-ssbse-challenge-2023/ssbse-challenge-examples/hello-custom-binary-Ex.py --isa X86 --input /home/ubuntu/experiment-5/output/default/queue//id:001332,src:001273+000410,time:54445337,execs:45764,op:cm-gem5.so,pos:0

warn: No dot file generated. Please install pydot to generate the dot file and pdf.
src/sim/simulate.cc:194: info: Entering event queue @ 0.  Starting simulation...
src/sim/mem_state.cc:443: info: Increasing stack size by one page.
/home/ubuntu/experiment-5/binaries/fuzz_1692439020485297207.c.o: /lib/x86_64-linux-gnu/libc.so.6: version `so.6' not found (required by /home/ubuntu/experiment-5/binaries/fuzz_1692439020485297207.c.o)
/home/ubuntu/experiment-5/binaries/fuzz_1692439020485297207.c.o: /lib/x86_64-linux-gnu/libc.so.6: weak version `c.so.6' not found (required by /home/ubuntu/experiment-5/binaries/fuzz_1692439020485297207.c.o)
Exiting @ tick 1355137173 because exiting with last active thread context.
