Global frequency set at 1000000000000 ticks per second
src/mem/dram_interface.cc:690: warn: DRAM device capacity (8192 Mbytes) does not match the address range assigned (32 Mbytes)
src/base/statistics.hh:279: warn: One of the stats is a legacy stat. Legacy stat is a stat that does not belong to any statistics::Group. Legacy stat is deprecated.
board.remote_gdb: Listening for connections on port 7000
gem5 Simulator System.  https://www.gem5.org
gem5 is copyrighted software; use the --copyright option for details.

gem5 version 23.0.0.1--SSBSE Challeng Track
gem5 compiled Aug 13 2023 00:24:12
gem5 started Aug 25 2023 22:39:36
gem5 executing on fuzzer-03, pid 1417223
command line: /home/ubuntu/gem5-ssbse-challenge-2023/build/X86/gem5.opt /home/ubuntu/gem5-ssbse-challenge-2023/ssbse-challenge-examples/hello-custom-binary-Ex.py --isa X86 --input /home/ubuntu/experiment-5/output/default/queue//id:000342,time:0,execs:0,orig:2005-05-12-Int64ToFP.txt

warn: No dot file generated. Please install pydot to generate the dot file and pdf.
src/sim/simulate.cc:194: info: Entering event queue @ 0.  Starting simulation...
src/sim/mem_state.cc:443: info: Increasing stack size by one page.
src/sim/syscall_emul.cc:74: warn: ignoring syscall mprotect(...)
src/sim/syscall_emul.cc:74: warn: ignoring syscall mprotect(...)
src/sim/syscall_emul.cc:74: warn: ignoring syscall mprotect(...)
0 = 0.000000  0 = 0.000000
1152921504606846976 = 1152921504606846976.000000  1152921504606846976 = 1152921504606846976.000000
2305843009213693952 = 2305843009213693952.000000  2305843009213693952 = 2305843009213693952.000000
3458764513820540928 = 3458764513820540928.000000  3458764513820540928 = 3458764513820540928.000000
4611686018427387904 = 4611686018427387904.000000  4611686018427387904 = 4611686018427387904.000000
5764607523034234880 = 5764607523034234880.000000  5764607523034234880 = 5764607523034234880.000000
6917529027641081856 = 6917529027641081856.000000  6917529027641081856 = 6917529027641081856.000000
8070450532247928832 = 8070450532247928832.000000  8070450532247928832 = 8070450532247928832.000000
9223372036854775808 = 9223372036854775808.000000  -9223372036854775808 = -9223372036854775808.000000
10376293541461622784 = 10376293541461622784.000000  -8070450532247928832 = -8070450532247928832.000000
11529215046068469760 = 11529215046068469760.000000  -6917529027641081856 = -6917529027641081856.000000
12682136550675316736 = 12682136550675316736.000000  -5764607523034234880 = -5764607523034234880.000000
13835058055282163712 = 13835058055282163712.000000  -4611686018427387904 = -4611686018427387904.000000
14987979559889010688 = 14987979559889010688.000000  -3458764513820540928 = -3458764513820540928.000000
16140901064495857664 = 16140901064495857664.000000  -2305843009213693952 = -2305843009213693952.000000
17293822569102704640 = 17293822569102704640.000000  -1152921504606846976 = -1152921504606846976.000000
Exiting @ tick 24467616558 because exiting with last active thread context.
