Global frequency set at 1000000000000 ticks per second
src/mem/dram_interface.cc:690: warn: DRAM device capacity (8192 Mbytes) does not match the address range assigned (32 Mbytes)
src/base/statistics.hh:279: warn: One of the stats is a legacy stat. Legacy stat is a stat that does not belong to any statistics::Group. Legacy stat is deprecated.
board.remote_gdb: Listening for connections on port 7001
gem5 Simulator System.  https://www.gem5.org
gem5 is copyrighted software; use the --copyright option for details.

gem5 version 23.0.0.1--SSBSE Challeng Track
gem5 compiled Aug 13 2023 00:24:12
gem5 started Aug 22 2023 17:36:53
gem5 executing on fuzzer-03, pid 531921
command line: /home/ubuntu/gem5-ssbse-challenge-2023/build/X86/gem5.opt /home/ubuntu/gem5-ssbse-challenge-2023/ssbse-challenge-examples/hello-custom-binary-Ex.py --isa X86 --input /home/ubuntu/experiment-5/output/default/crashes//id:000026,sig:06,src:000825+000755,time:39739528,execs:35994,op:cm-gem5.so,pos:0

warn: No dot file generated. Please install pydot to generate the dot file and pdf.
src/sim/simulate.cc:194: info: Entering event queue @ 0.  Starting simulation...
src/arch/x86/faults.cc:166: panic: Tried to read unmapped address 0x3db8.
PC: (0x7ffff8001f19=>0x7ffff8001f1c).(0=>1), Instr:   MOV_R_M : ld   rax, DS:[rdx]
Memory Usage: 204652 KBytes
Program aborted at tick 176887935
--- BEGIN LIBC BACKTRACE ---
/home/ubuntu/gem5-ssbse-challenge-2023/build/X86/gem5.opt(+0x38b2663)[0x56347fd7e663]
/home/ubuntu/gem5-ssbse-challenge-2023/build/X86/gem5.opt(+0x39060c9)[0x56347fdd20c9]
/lib/x86_64-linux-gnu/libpthread.so.0(+0x14420)[0x7f026271d420]
/lib/x86_64-linux-gnu/libc.so.6(gsignal+0xcb)[0x7f026185300b]
/lib/x86_64-linux-gnu/libc.so.6(abort+0x12b)[0x7f0261832859]
/home/ubuntu/gem5-ssbse-challenge-2023/build/X86/gem5.opt(+0xab5f45)[0x56347cf81f45]
/home/ubuntu/gem5-ssbse-challenge-2023/build/X86/gem5.opt(+0x2897ec9)[0x56347ed63ec9]
/home/ubuntu/gem5-ssbse-challenge-2023/build/X86/gem5.opt(+0x1f6f583)[0x56347e43b583]
/home/ubuntu/gem5-ssbse-challenge-2023/build/X86/gem5.opt(+0x1f55285)[0x56347e421285]
/home/ubuntu/gem5-ssbse-challenge-2023/build/X86/gem5.opt(+0x1f5bd78)[0x56347e427d78]
/home/ubuntu/gem5-ssbse-challenge-2023/build/X86/gem5.opt(+0x1f69890)[0x56347e435890]
/home/ubuntu/gem5-ssbse-challenge-2023/build/X86/gem5.opt(+0x2940e74)[0x56347ee0ce74]
/home/ubuntu/gem5-ssbse-challenge-2023/build/X86/gem5.opt(+0x1f60bf1)[0x56347e42cbf1]
/home/ubuntu/gem5-ssbse-challenge-2023/build/X86/gem5.opt(+0x1f74460)[0x56347e440460]
/home/ubuntu/gem5-ssbse-challenge-2023/build/X86/gem5.opt(+0x31e0234)[0x56347f6ac234]
/home/ubuntu/gem5-ssbse-challenge-2023/build/X86/gem5.opt(+0x3278d1e)[0x56347f744d1e]
/home/ubuntu/gem5-ssbse-challenge-2023/build/X86/gem5.opt(+0x1f531f4)[0x56347e41f1f4]
/home/ubuntu/gem5-ssbse-challenge-2023/build/X86/gem5.opt(+0x38e3556)[0x56347fdaf556]
/home/ubuntu/gem5-ssbse-challenge-2023/build/X86/gem5.opt(+0x395010d)[0x56347fe1c10d]
/home/ubuntu/gem5-ssbse-challenge-2023/build/X86/gem5.opt(+0x3951e19)[0x56347fe1de19]
/home/ubuntu/gem5-ssbse-challenge-2023/build/X86/gem5.opt(+0x17f771b)[0x56347dcc371b]
/home/ubuntu/gem5-ssbse-challenge-2023/build/X86/gem5.opt(+0xa626b9)[0x56347cf2e6b9]
/lib/x86_64-linux-gnu/libpython3.8.so.1.0(+0x2a8748)[0x7f02629d6748]
/lib/x86_64-linux-gnu/libpython3.8.so.1.0(_PyEval_EvalFrameDefault+0x8dd8)[0x7f02627abf48]
/lib/x86_64-linux-gnu/libpython3.8.so.1.0(_PyEval_EvalCodeWithName+0x8fb)[0x7f02628f8e4b]
/lib/x86_64-linux-gnu/libpython3.8.so.1.0(_PyFunction_Vectorcall+0x94)[0x7f02629d6124]
/lib/x86_64-linux-gnu/libpython3.8.so.1.0(+0x74d6d)[0x7f02627a2d6d]
/lib/x86_64-linux-gnu/libpython3.8.so.1.0(_PyEval_EvalFrameDefault+0x7d86)[0x7f02627aaef6]
/lib/x86_64-linux-gnu/libpython3.8.so.1.0(_PyEval_EvalCodeWithName+0x8fb)[0x7f02628f8e4b]
/lib/x86_64-linux-gnu/libpython3.8.so.1.0(_PyFunction_Vectorcall+0x94)[0x7f02629d6124]
/lib/x86_64-linux-gnu/libpython3.8.so.1.0(+0x74d6d)[0x7f02627a2d6d]
/lib/x86_64-linux-gnu/libpython3.8.so.1.0(_PyEval_EvalFrameDefault+0xea8)[0x7f02627a4018]
--- END LIBC BACKTRACE ---
For more info on how to address this issue, please visit https://www.gem5.org/documentation/general_docs/common-errors/ 

./mine-crash.sh: line 21: 531921 Aborted                 $gem5 $gem5_script --isa X86 --input $txt_file
