src/base/loader/elf_object.cc:257: warn: Unknown architecture: 1086
ValueError: ('No SE workload is compatible with %s', '/home/ubuntu/experiment-2/binary/fuzz_1692372323144107889.c.o')

At:
  src/sim/Workload.py(132): init_compatible
  src/python/gem5/components/boards/se_binary_workload.py(103): set_se_binary_workload
  /home/ubuntu/gem5-ssbse-challenge-2023/ssbse-challenge-examples/hello-custom-binary-Ex.py(147): <module>
  src/python/m5/main.py(629): main
gem5 Simulator System.  https://www.gem5.org
gem5 is copyrighted software; use the --copyright option for details.

gem5 version 23.0.0.1--SSBSE Challeng Track
gem5 compiled Aug 13 2023 00:24:12
gem5 started Aug 25 2023 21:52:18
gem5 executing on fuzzer-03, pid 1410460
command line: /home/ubuntu/gem5-ssbse-challenge-2023/build/X86/gem5.opt /home/ubuntu/gem5-ssbse-challenge-2023/ssbse-challenge-examples/hello-custom-binary-Ex.py --isa X86 --input /home/ubuntu/experiment-2/output/default/queue//id:000429,src:000325+000323,time:13664807,execs:16898,op:cm-gem5.so,pos:0

