Global frequency set at 1000000000000 ticks per second
src/mem/dram_interface.cc:690: warn: DRAM device capacity (8192 Mbytes) does not match the address range assigned (32 Mbytes)
src/base/statistics.hh:279: warn: One of the stats is a legacy stat. Legacy stat is a stat that does not belong to any statistics::Group. Legacy stat is deprecated.
board.remote_gdb: Listening for connections on port 7001
gem5 Simulator System.  https://www.gem5.org
gem5 is copyrighted software; use the --copyright option for details.

gem5 version 23.0.0.1--SSBSE Challeng Track
gem5 compiled Aug 13 2023 00:24:12
gem5 started Aug 29 2023 13:04:12
gem5 executing on fuzzer-03, pid 2721298
command line: /home/ubuntu/gem5-ssbse-challenge-2023/build/X86/gem5.opt /home/ubuntu/gem5-ssbse-challenge-2023/ssbse-challenge-examples/hello-custom-binary-Ex.py --isa X86 --input /home/ubuntu/experiment-6/output-AUG-21/default/queue//id:001106,src:000106+000245,time:4353352,execs:11304,op:cm-gem5.so,pos:0

warn: No dot file generated. Please install pydot to generate the dot file and pdf.
src/sim/simulate.cc:194: info: Entering event queue @ 0.  Starting simulation...
src/sim/mem_state.cc:443: info: Increasing stack size by one page.
src/sim/syscall_emul.cc:74: warn: ignoring syscall mprotect(...)
src/sim/syscall_emul.cc:74: warn: ignoring syscall mprotect(...)
src/sim/syscall_emul.cc:74: warn: ignoring syscall mprotect(...)
Solution of Tower of Hanoi Problem with 1073741824 Disks

Starting state:
A:  1073741824  1073741824  1073741824  1073741824 
B:  0  0  0  0 
C:  0  0  0  0 
------------------------------------------


Subsequent states:

A:  0  1073741824  1073741824  1073741824 
B:  0  0  0  0 
C:  0  0  0  1073741824 
------------------------------------------
A:  0  0  1073741824  1073741824 
B:  0  0  0  1073741824 
C:  0  0  0  1073741824 
------------------------------------------
A:  0  0  1073741824  1073741824 
B:  0  0  1073741824  1073741824 
C:  0  0  0  0 
------------------------------------------
A:  0  0  0  1073741824 
B:  0  0  1073741824  1073741824 
C:  0  0  0  1073741824 
------------------------------------------
A:  0  0  1073741824  1073741824 
B:  0  0  0  1073741824 
C:  0  0  0  1073741824 
------------------------------------------
A:  0  0  1073741824  1073741824 
B:  0  0  0  0 
C:  0  0  1073741824  1073741824 
------------------------------------------
A:  0  0  0  1073741824 
B:  0  0  0  0 
C:  0  1073741824  1073741824  1073741824 
------------------------------------------
A:  0  0  0  0 
B:  0  0  0  1073741824 
C:  0  1073741824  1073741824  1073741824 
------------------------------------------
A:  0  0  0  0 
B:  0  0  1073741824  1073741824 
C:  0  0  1073741824  1073741824 
------------------------------------------
A:  0  0  0  1073741824 
B:  0  0  1073741824  1073741824 
C:  0  0  0  1073741824 
------------------------------------------
A:  0  0  1073741824  1073741824 
B:  0  0  0  1073741824 
C:  0  0  0  1073741824 
------------------------------------------
A:  0  0  1073741824  1073741824 
B:  0  0  1073741824  1073741824 
C:  0  0  0  0 
------------------------------------------
A:  0  0  0  1073741824 
B:  0  0  1073741824  1073741824 
C:  0  0  0  1073741824 
------------------------------------------
A:  0  0  0  0 
B:  0  1073741824  1073741824  1073741824 
C:  0  0  0  1073741824 
------------------------------------------
A:  0  0  0  0 
B:  1073741824  1073741824  1073741824  1073741824 
C:  0  0  0  0 
------------------------------------------
Exiting @ tick 24316957701 because exiting with last active thread context.
