Global frequency set at 1000000000000 ticks per second
src/mem/dram_interface.cc:690: warn: DRAM device capacity (8192 Mbytes) does not match the address range assigned (32 Mbytes)
src/base/statistics.hh:279: warn: One of the stats is a legacy stat. Legacy stat is a stat that does not belong to any statistics::Group. Legacy stat is deprecated.
board.remote_gdb: Listening for connections on port 7001
gem5 Simulator System.  https://www.gem5.org
gem5 is copyrighted software; use the --copyright option for details.

gem5 version 23.0.0.1--SSBSE Challeng Track
gem5 compiled Aug 13 2023 00:24:12
gem5 started Aug 31 2023 23:32:42
gem5 executing on fuzzer-03, pid 2993757
command line: /home/ubuntu/gem5-ssbse-challenge-2023/build/X86/gem5.opt /home/ubuntu/gem5-ssbse-challenge-2023/ssbse-challenge-examples/hello-custom-binary-Ex.py --isa X86 --input /home/ubuntu/Gem5Testing/Evaluation/Experiment-4-21-Aug-2023-X86/TEMP//id:001312,src:000443+000532,time:58141972,execs:47799,op:cm-gem5.so,pos:0,+cov

warn: No dot file generated. Please install pydot to generate the dot file and pdf.
src/sim/simulate.cc:194: info: Entering event queue @ 0.  Starting simulation...
src/sim/mem_state.cc:443: info: Increasing stack size by one page.
src/sim/syscall_emul.cc:74: warn: ignoring syscall mprotect(...)
Inconsistency detected by ld.so: ../sysdeps/x86_64/dl-machine.h: 541: elf_machine_rela_relative: Assertion `ELFW(R_TYPE) (reloc->r_info) == R_X86_64_RELATIVE' failed!
Exiting @ tick 5739570018 because exiting with last active thread context.
