Global frequency set at 1000000000000 ticks per second
src/mem/dram_interface.cc:690: warn: DRAM device capacity (8192 Mbytes) does not match the address range assigned (32 Mbytes)
src/base/statistics.hh:279: warn: One of the stats is a legacy stat. Legacy stat is a stat that does not belong to any statistics::Group. Legacy stat is deprecated.
board.remote_gdb: Listening for connections on port 7000
gem5 Simulator System.  https://www.gem5.org
gem5 is copyrighted software; use the --copyright option for details.

gem5 version 23.0.0.1--SSBSE Challeng Track
gem5 compiled Aug 13 2023 00:24:12
gem5 started Aug 25 2023 21:52:12
gem5 executing on fuzzer-03, pid 1410348
command line: /home/ubuntu/gem5-ssbse-challenge-2023/build/X86/gem5.opt /home/ubuntu/gem5-ssbse-challenge-2023/ssbse-challenge-examples/hello-custom-binary-Ex.py --isa X86 --input /home/ubuntu/experiment-2/output/default/queue//id:000422,src:000325+000002,time:13456841,execs:16506,op:cm-gem5.so,pos:0,+cov

warn: No dot file generated. Please install pydot to generate the dot file and pdf.
src/sim/simulate.cc:194: info: Entering event queue @ 0.  Starting simulation...
/home/ubuntu/experiment-2/binary/fuzz_1692372114988407782.c.o: /home/ubuntu/experiment-2/binary/fuzz_1692372114988407782.c.o: no version information available (required by /home/ubuntu/experiment-2/binary/fuzz_1692372114988407782.c.o)
src/sim/mem_state.cc:443: info: Increasing stack size by one page.
/home/ubuntu/experiment-2/binary/fuzz_1692372114988407782.c.o: symbol lookup error: /home/ubuntu/experiment-2/binary/fuzz_1692372114988407782.c.o: undefined symbol: , version 
Exiting @ tick 844750404 because exiting with last active thread context.
