Global frequency set at 1000000000000 ticks per second
src/mem/dram_interface.cc:690: warn: DRAM device capacity (8192 Mbytes) does not match the address range assigned (32 Mbytes)
src/base/statistics.hh:279: warn: One of the stats is a legacy stat. Legacy stat is a stat that does not belong to any statistics::Group. Legacy stat is deprecated.
board.remote_gdb: Listening for connections on port 7001
gem5 Simulator System.  https://www.gem5.org
gem5 is copyrighted software; use the --copyright option for details.

gem5 version 23.0.0.1--SSBSE Challeng Track
gem5 compiled Aug 13 2023 00:24:12
gem5 started Aug 29 2023 12:16:08
gem5 executing on fuzzer-03, pid 2695985
command line: /home/ubuntu/gem5-ssbse-challenge-2023/build/X86/gem5.opt /home/ubuntu/gem5-ssbse-challenge-2023/ssbse-challenge-examples/hello-custom-binary-Ex.py --isa X86 --input /home/ubuntu/experiment-6/output-AUG-21/default/queue//id:000091,time:0,execs:0,orig:00164.txt

warn: No dot file generated. Please install pydot to generate the dot file and pdf.
src/sim/simulate.cc:194: info: Entering event queue @ 0.  Starting simulation...
src/sim/mem_state.cc:443: info: Increasing stack size by one page.
src/sim/syscall_emul.cc:74: warn: ignoring syscall mprotect(...)
src/sim/syscall_emul.cc:74: warn: ignoring syscall mprotect(...)
src/sim/syscall_emul.cc:74: warn: ignoring syscall mprotect(...)
0
0
0
0
0
0
0
0
1, 1
0, 0
0
src/sim/faults.cc:60: panic: panic condition !FullSystem occurred: fault (Divide-Error) detected @ PC (0x1270=>0x1274).(11=>12)
Memory Usage: 236620 KBytes
Program aborted at tick 12046122486
--- BEGIN LIBC BACKTRACE ---
/home/ubuntu/gem5-ssbse-challenge-2023/build/X86/gem5.opt(+0x38b2663)[0x55a6df255663]
/home/ubuntu/gem5-ssbse-challenge-2023/build/X86/gem5.opt(+0x39060c9)[0x55a6df2a90c9]
/lib/x86_64-linux-gnu/libpthread.so.0(+0x14420)[0x7f78092b4420]
/lib/x86_64-linux-gnu/libc.so.6(gsignal+0xcb)[0x7f78083ea00b]
/lib/x86_64-linux-gnu/libc.so.6(abort+0x12b)[0x7f78083c9859]
/home/ubuntu/gem5-ssbse-challenge-2023/build/X86/gem5.opt(+0xab5f45)[0x55a6dc458f45]
/home/ubuntu/gem5-ssbse-challenge-2023/build/X86/gem5.opt(+0x3a09107)[0x55a6df3ac107]
/home/ubuntu/gem5-ssbse-challenge-2023/build/X86/gem5.opt(+0x2896f22)[0x55a6de239f22]
/home/ubuntu/gem5-ssbse-challenge-2023/build/X86/gem5.opt(+0x1f6f583)[0x55a6dd912583]
/home/ubuntu/gem5-ssbse-challenge-2023/build/X86/gem5.opt(+0x1f55285)[0x55a6dd8f8285]
/home/ubuntu/gem5-ssbse-challenge-2023/build/X86/gem5.opt(+0x1f534dd)[0x55a6dd8f64dd]
/home/ubuntu/gem5-ssbse-challenge-2023/build/X86/gem5.opt(+0x1f546aa)[0x55a6dd8f76aa]
/home/ubuntu/gem5-ssbse-challenge-2023/build/X86/gem5.opt(+0x1f55f19)[0x55a6dd8f8f19]
/home/ubuntu/gem5-ssbse-challenge-2023/build/X86/gem5.opt(+0x1f534dd)[0x55a6dd8f64dd]
/home/ubuntu/gem5-ssbse-challenge-2023/build/X86/gem5.opt(+0x1f546aa)[0x55a6dd8f76aa]
/home/ubuntu/gem5-ssbse-challenge-2023/build/X86/gem5.opt(+0x1f55f19)[0x55a6dd8f8f19]
/home/ubuntu/gem5-ssbse-challenge-2023/build/X86/gem5.opt(+0x1f534dd)[0x55a6dd8f64dd]
/home/ubuntu/gem5-ssbse-challenge-2023/build/X86/gem5.opt(+0x1f546aa)[0x55a6dd8f76aa]
/home/ubuntu/gem5-ssbse-challenge-2023/build/X86/gem5.opt(+0x1f55f19)[0x55a6dd8f8f19]
/home/ubuntu/gem5-ssbse-challenge-2023/build/X86/gem5.opt(+0x1f534dd)[0x55a6dd8f64dd]
/home/ubuntu/gem5-ssbse-challenge-2023/build/X86/gem5.opt(+0x1f546aa)[0x55a6dd8f76aa]
/home/ubuntu/gem5-ssbse-challenge-2023/build/X86/gem5.opt(+0x1f55f19)[0x55a6dd8f8f19]
/home/ubuntu/gem5-ssbse-challenge-2023/build/X86/gem5.opt(+0x1f534dd)[0x55a6dd8f64dd]
/home/ubuntu/gem5-ssbse-challenge-2023/build/X86/gem5.opt(+0x1f546aa)[0x55a6dd8f76aa]
/home/ubuntu/gem5-ssbse-challenge-2023/build/X86/gem5.opt(+0x1f55f19)[0x55a6dd8f8f19]
/home/ubuntu/gem5-ssbse-challenge-2023/build/X86/gem5.opt(+0x1f534dd)[0x55a6dd8f64dd]
/home/ubuntu/gem5-ssbse-challenge-2023/build/X86/gem5.opt(+0x1f546aa)[0x55a6dd8f76aa]
/home/ubuntu/gem5-ssbse-challenge-2023/build/X86/gem5.opt(+0x1f55f19)[0x55a6dd8f8f19]
/home/ubuntu/gem5-ssbse-challenge-2023/build/X86/gem5.opt(+0x1f534dd)[0x55a6dd8f64dd]
/home/ubuntu/gem5-ssbse-challenge-2023/build/X86/gem5.opt(+0x1f546aa)[0x55a6dd8f76aa]
/home/ubuntu/gem5-ssbse-challenge-2023/build/X86/gem5.opt(+0x1f55f19)[0x55a6dd8f8f19]
/home/ubuntu/gem5-ssbse-challenge-2023/build/X86/gem5.opt(+0x1f5857d)[0x55a6dd8fb57d]
--- END LIBC BACKTRACE ---
For more info on how to address this issue, please visit https://www.gem5.org/documentation/general_docs/common-errors/ 

./mine-diff-testing.sh: line 21: 2695985 Aborted                 $gem5 $gem5_script --isa X86 --input $txt_file
