Global frequency set at 1000000000000 ticks per second
src/mem/dram_interface.cc:690: warn: DRAM device capacity (8192 Mbytes) does not match the address range assigned (32 Mbytes)
src/base/statistics.hh:279: warn: One of the stats is a legacy stat. Legacy stat is a stat that does not belong to any statistics::Group. Legacy stat is deprecated.
board.remote_gdb: Listening for connections on port 7000
gem5 Simulator System.  https://www.gem5.org
gem5 is copyrighted software; use the --copyright option for details.

gem5 version 23.0.0.1--SSBSE Challeng Track
gem5 compiled Aug 13 2023 00:24:12
gem5 started Aug 22 2023 16:55:32
gem5 executing on fuzzer-03, pid 526785
command line: /home/ubuntu/gem5-ssbse-challenge-2023/build/X86/gem5.opt /home/ubuntu/gem5-ssbse-challenge-2023/ssbse-challenge-examples/hello-custom-binary-Ex.py --isa X86 --input /home/ubuntu/experiment-6/output-AUG-21/default/crashes//id:000015,sig:06,src:000662+000660,time:21215304,execs:18244,op:cm-gem5.so,pos:0

warn: No dot file generated. Please install pydot to generate the dot file and pdf.
src/sim/simulate.cc:194: info: Entering event queue @ 0.  Starting simulation...
src/arch/x86/faults.cc:166: panic: Tried to read unmapped address 0xfffc000000000338.
PC: (0x7ffff8002654=>0x7ffff8002656).(0=>1), Instr:   MOV_R_M : ld   ecx, DS:[rdx]
Memory Usage: 203628 KBytes
Program aborted at tick 164108727
--- BEGIN LIBC BACKTRACE ---
/home/ubuntu/gem5-ssbse-challenge-2023/build/X86/gem5.opt(+0x38b2663)[0x5600d7ca0663]
/home/ubuntu/gem5-ssbse-challenge-2023/build/X86/gem5.opt(+0x39060c9)[0x5600d7cf40c9]
/lib/x86_64-linux-gnu/libpthread.so.0(+0x14420)[0x7fd86cdb9420]
/lib/x86_64-linux-gnu/libc.so.6(gsignal+0xcb)[0x7fd86beef00b]
/lib/x86_64-linux-gnu/libc.so.6(abort+0x12b)[0x7fd86bece859]
/home/ubuntu/gem5-ssbse-challenge-2023/build/X86/gem5.opt(+0xab5f45)[0x5600d4ea3f45]
/home/ubuntu/gem5-ssbse-challenge-2023/build/X86/gem5.opt(+0x2897ec9)[0x5600d6c85ec9]
/home/ubuntu/gem5-ssbse-challenge-2023/build/X86/gem5.opt(+0x1f6f583)[0x5600d635d583]
/home/ubuntu/gem5-ssbse-challenge-2023/build/X86/gem5.opt(+0x1f55285)[0x5600d6343285]
/home/ubuntu/gem5-ssbse-challenge-2023/build/X86/gem5.opt(+0x1f5bd78)[0x5600d6349d78]
/home/ubuntu/gem5-ssbse-challenge-2023/build/X86/gem5.opt(+0x1f69890)[0x5600d6357890]
/home/ubuntu/gem5-ssbse-challenge-2023/build/X86/gem5.opt(+0x2940e74)[0x5600d6d2ee74]
/home/ubuntu/gem5-ssbse-challenge-2023/build/X86/gem5.opt(+0x1f60bf1)[0x5600d634ebf1]
/home/ubuntu/gem5-ssbse-challenge-2023/build/X86/gem5.opt(+0x1f74460)[0x5600d6362460]
/home/ubuntu/gem5-ssbse-challenge-2023/build/X86/gem5.opt(+0x31e0234)[0x5600d75ce234]
/home/ubuntu/gem5-ssbse-challenge-2023/build/X86/gem5.opt(+0x3278d1e)[0x5600d7666d1e]
/home/ubuntu/gem5-ssbse-challenge-2023/build/X86/gem5.opt(+0x1f531f4)[0x5600d63411f4]
/home/ubuntu/gem5-ssbse-challenge-2023/build/X86/gem5.opt(+0x38e3556)[0x5600d7cd1556]
/home/ubuntu/gem5-ssbse-challenge-2023/build/X86/gem5.opt(+0x395010d)[0x5600d7d3e10d]
/home/ubuntu/gem5-ssbse-challenge-2023/build/X86/gem5.opt(+0x3951e19)[0x5600d7d3fe19]
/home/ubuntu/gem5-ssbse-challenge-2023/build/X86/gem5.opt(+0x17f771b)[0x5600d5be571b]
/home/ubuntu/gem5-ssbse-challenge-2023/build/X86/gem5.opt(+0xa626b9)[0x5600d4e506b9]
/lib/x86_64-linux-gnu/libpython3.8.so.1.0(+0x2a8748)[0x7fd86d072748]
/lib/x86_64-linux-gnu/libpython3.8.so.1.0(_PyEval_EvalFrameDefault+0x8dd8)[0x7fd86ce47f48]
/lib/x86_64-linux-gnu/libpython3.8.so.1.0(_PyEval_EvalCodeWithName+0x8fb)[0x7fd86cf94e4b]
/lib/x86_64-linux-gnu/libpython3.8.so.1.0(_PyFunction_Vectorcall+0x94)[0x7fd86d072124]
/lib/x86_64-linux-gnu/libpython3.8.so.1.0(+0x74d6d)[0x7fd86ce3ed6d]
/lib/x86_64-linux-gnu/libpython3.8.so.1.0(_PyEval_EvalFrameDefault+0x7d86)[0x7fd86ce46ef6]
/lib/x86_64-linux-gnu/libpython3.8.so.1.0(_PyEval_EvalCodeWithName+0x8fb)[0x7fd86cf94e4b]
/lib/x86_64-linux-gnu/libpython3.8.so.1.0(_PyFunction_Vectorcall+0x94)[0x7fd86d072124]
/lib/x86_64-linux-gnu/libpython3.8.so.1.0(+0x74d6d)[0x7fd86ce3ed6d]
/lib/x86_64-linux-gnu/libpython3.8.so.1.0(_PyEval_EvalFrameDefault+0xea8)[0x7fd86ce40018]
--- END LIBC BACKTRACE ---
For more info on how to address this issue, please visit https://www.gem5.org/documentation/general_docs/common-errors/ 

./mine-crash.sh: line 21: 526785 Aborted                 $gem5 $gem5_script --isa X86 --input $txt_file
