Global frequency set at 1000000000000 ticks per second
src/mem/dram_interface.cc:690: warn: DRAM device capacity (8192 Mbytes) does not match the address range assigned (32 Mbytes)
src/base/statistics.hh:279: warn: One of the stats is a legacy stat. Legacy stat is a stat that does not belong to any statistics::Group. Legacy stat is deprecated.
board.remote_gdb: Listening for connections on port 7001
gem5 Simulator System.  https://www.gem5.org
gem5 is copyrighted software; use the --copyright option for details.

gem5 version 23.0.0.1--SSBSE Challeng Track
gem5 compiled Aug 13 2023 00:24:12
gem5 started Aug 29 2023 12:40:13
gem5 executing on fuzzer-03, pid 2707782
command line: /home/ubuntu/gem5-ssbse-challenge-2023/build/X86/gem5.opt /home/ubuntu/gem5-ssbse-challenge-2023/ssbse-challenge-examples/hello-custom-binary-Ex.py --isa X86 --input /home/ubuntu/experiment-6/output-AUG-21/default/queue//id:000561,time:0,execs:0,orig:960321-1.txt

warn: No dot file generated. Please install pydot to generate the dot file and pdf.
src/sim/simulate.cc:194: info: Entering event queue @ 0.  Starting simulation...
src/sim/mem_state.cc:443: info: Increasing stack size by one page.
src/sim/syscall_emul.cc:74: warn: ignoring syscall mprotect(...)
src/sim/syscall_emul.cc:74: warn: ignoring syscall mprotect(...)
src/sim/syscall_emul.cc:74: warn: ignoring syscall mprotect(...)
src/arch/x86/faults.cc:166: panic: Tried to read unmapped address 0xffffffff88caac18.
PC: (0x10fb=>0x1103).(1=>2), Instr:   CMP_M_I : ld   t1b, DS:[rax + rdx + 0xffffffff88ca6c00]
Memory Usage: 229456 KBytes
Program aborted at tick 6602773284
--- BEGIN LIBC BACKTRACE ---
/home/ubuntu/gem5-ssbse-challenge-2023/build/X86/gem5.opt(+0x38b2663)[0x560001aa3663]
/home/ubuntu/gem5-ssbse-challenge-2023/build/X86/gem5.opt(+0x39060c9)[0x560001af70c9]
/lib/x86_64-linux-gnu/libpthread.so.0(+0x14420)[0x7ff28e948420]
/lib/x86_64-linux-gnu/libc.so.6(gsignal+0xcb)[0x7ff28da7e00b]
/lib/x86_64-linux-gnu/libc.so.6(abort+0x12b)[0x7ff28da5d859]
/home/ubuntu/gem5-ssbse-challenge-2023/build/X86/gem5.opt(+0xab5f45)[0x55fffeca6f45]
/home/ubuntu/gem5-ssbse-challenge-2023/build/X86/gem5.opt(+0x2897ec9)[0x560000a88ec9]
/home/ubuntu/gem5-ssbse-challenge-2023/build/X86/gem5.opt(+0x1f6f583)[0x560000160583]
/home/ubuntu/gem5-ssbse-challenge-2023/build/X86/gem5.opt(+0x1f55285)[0x560000146285]
/home/ubuntu/gem5-ssbse-challenge-2023/build/X86/gem5.opt(+0x1f5bd78)[0x56000014cd78]
/home/ubuntu/gem5-ssbse-challenge-2023/build/X86/gem5.opt(+0x1f69890)[0x56000015a890]
/home/ubuntu/gem5-ssbse-challenge-2023/build/X86/gem5.opt(+0x2940e74)[0x560000b31e74]
/home/ubuntu/gem5-ssbse-challenge-2023/build/X86/gem5.opt(+0x1f60bf1)[0x560000151bf1]
/home/ubuntu/gem5-ssbse-challenge-2023/build/X86/gem5.opt(+0x1f74460)[0x560000165460]
/home/ubuntu/gem5-ssbse-challenge-2023/build/X86/gem5.opt(+0x31e0234)[0x5600013d1234]
/home/ubuntu/gem5-ssbse-challenge-2023/build/X86/gem5.opt(+0x327881e)[0x56000146981e]
/home/ubuntu/gem5-ssbse-challenge-2023/build/X86/gem5.opt(+0x1f531f4)[0x5600001441f4]
/home/ubuntu/gem5-ssbse-challenge-2023/build/X86/gem5.opt(+0x1f546aa)[0x5600001456aa]
/home/ubuntu/gem5-ssbse-challenge-2023/build/X86/gem5.opt(+0x1f55f19)[0x560000146f19]
/home/ubuntu/gem5-ssbse-challenge-2023/build/X86/gem5.opt(+0x1f534dd)[0x5600001444dd]
/home/ubuntu/gem5-ssbse-challenge-2023/build/X86/gem5.opt(+0x38e3556)[0x560001ad4556]
/home/ubuntu/gem5-ssbse-challenge-2023/build/X86/gem5.opt(+0x395010d)[0x560001b4110d]
/home/ubuntu/gem5-ssbse-challenge-2023/build/X86/gem5.opt(+0x3951e19)[0x560001b42e19]
/home/ubuntu/gem5-ssbse-challenge-2023/build/X86/gem5.opt(+0x17f771b)[0x55ffff9e871b]
/home/ubuntu/gem5-ssbse-challenge-2023/build/X86/gem5.opt(+0xa626b9)[0x55fffec536b9]
/lib/x86_64-linux-gnu/libpython3.8.so.1.0(+0x2a8748)[0x7ff28ec01748]
/lib/x86_64-linux-gnu/libpython3.8.so.1.0(_PyEval_EvalFrameDefault+0x8dd8)[0x7ff28e9d6f48]
/lib/x86_64-linux-gnu/libpython3.8.so.1.0(_PyEval_EvalCodeWithName+0x8fb)[0x7ff28eb23e4b]
/lib/x86_64-linux-gnu/libpython3.8.so.1.0(_PyFunction_Vectorcall+0x94)[0x7ff28ec01124]
/lib/x86_64-linux-gnu/libpython3.8.so.1.0(+0x74d6d)[0x7ff28e9cdd6d]
/lib/x86_64-linux-gnu/libpython3.8.so.1.0(_PyEval_EvalFrameDefault+0x7d86)[0x7ff28e9d5ef6]
/lib/x86_64-linux-gnu/libpython3.8.so.1.0(_PyEval_EvalCodeWithName+0x8fb)[0x7ff28eb23e4b]
--- END LIBC BACKTRACE ---
For more info on how to address this issue, please visit https://www.gem5.org/documentation/general_docs/common-errors/ 

./mine-diff-testing.sh: line 21: 2707782 Aborted                 $gem5 $gem5_script --isa X86 --input $txt_file
