Script started on Wed 02 Aug 2023 10:00:06 BST
23 ucacbbl@eden% echo "Lets try and record how to use perf with gem5"
Lets try and record how to use perf with gem5
24 ucacbbl@eden% echo "and use my tiny RNAfold inner loop example with gem5"
and use my tiny RNAfold inner loop example with gem5
25 ucacbbl@eden% echo "set up PATH etc"
set up PATH etc
26 ucacbbl@eden% pwd;date;echo $HOST
/cs/research/crest/projects1/ucacbbl/assugi/gem5
Wed  2 Aug 10:03:33 BST 2023
eden.cs.ucl.ac.uk
27 ucacbbl@eden% setenv PATH /opt/rh/devtoolset-10/root/usr/bin:"$PATH"
28 ucacbbl@eden% setenv PATH /opt/Python/Python-3.10.1/bin:/opt/Python/Python-3. 7/bin:"$PATH"
29 ucacbbl@eden% setenv LD_LIBRARY_PATH /opt/Python/Python-3.10.1/lib:"$LD_LIBRA RY_PATH"
30 ucacbbl@eden% 
30 ucacbbl@eden% ls -l gem5.opt_nogprof; rnafold_example[P[56G/higher_order_code
-rwx------ 1 ucacbbl crest   762763320 Jul 26 09:59 gem5.opt_nogprof
-rwx------ 1 ucacbbl csstaff     16528 Jul 29 10:15 rnafold_example/higher_order_code
31 ucacbbl@eden% perf record gem5.opt_nogprof ssbse-challenge-examples/hello-cus tom-binary.py --isa X86 --binary rnafold_example/higher_order_code
gem5 Simulator System.  https://www.gem5.org
gem5 is copyrighted software; use the --copyright option for details.

gem5 version 23.0.0.1--SSBSE Challeng Track
gem5 compiled Jul 26 2023 09:55:33
gem5 started Aug  2 2023 10:07:14
gem5 executing on eden.cs.ucl.ac.uk, pid 22041
command line: gem5.opt_nogprof ssbse-challenge-examples/hello-custom-binary.py --isa X86 --binary rnafold_example/higher_order_code

Script ssbse-challenge-examples/hello-custom-binary.py not found
Usage
=====
  gem5.opt_nogprof [gem5 options] script.py [script options]

gem5 is copyrighted software; use the --copyright option for details.

Options
=======
--help, -h              show this help message and exit
--build-info, -B        Show build information
--copyright, -C         Show full copyright information
--readme, -R            Show the readme
--outdir=DIR, -d DIR    Set the output directory to DIR [Default: m5out]
--redirect-stdout, -r   Redirect stdout (& stderr, without -e) to file
--redirect-stderr, -e   Redirect stderr to file
--silent-redirect       Suppress printing a message when redirecting stdout or
                        stderr
--stdout-file=FILE      Filename for -r redirection [Default: simout]
--stderr-file=FILE      Filename for -e redirection [Default: simerr]
--listener-mode={on,off,auto}
                        Port (e.g., gdb) listener mode (auto: Enable if
                        running interactively) [Default: auto]
--allow-remote-connections
                        Port listeners will accept connections from anywhere
                        (0.0.0.0). Default is only localhost.
--interactive, -i       Invoke the interactive interpreter after running the
                        script
--pdb                   Invoke the python debugger before running the script
--path=PATH[:PATH], -p PATH[:PATH]
                        Prepend PATH to the system path when invoking the
                        script
--quiet, -q             Reduce verbosity
--verbose, -v           Increase verbosity
-c cmd                  program passed in as string (terminates option list)
-s                      IGNORED, only for compatibility with python. don'tadd
                        user site directory to sys.path; also PYTHONNOUSERSITE

Statistics Options
------------------
--stats-file=FILE       Sets the output file for statistics [Default:
                        stats.txt]
--stats-help            Display documentation for available stat visitors

Configuration Options
---------------------
--dump-config=FILE      Dump configuration output file [Default: config.ini]
--json-config=FILE      Create JSON output of the configuration [Default:
                        config.json]
--dot-config=FILE       Create DOT & pdf outputs of the configuration
                        [Default: config.dot]
--dot-dvfs-config=FILE  Create DOT & pdf outputs of the DVFS configuration
                        [Default: none]

Debugging Options
-----------------
--debug-break=TICK[,TICK]
                        Create breakpoint(s) at TICK(s) (kills process if no
                        debugger attached)
--debug-help            Print help on debug flags
--debug-flags=FLAG[,FLAG]
                        Sets the flags for debug output (-FLAG disables a
                        flag)
--debug-start=TICK      Start debug output at TICK
--debug-end=TICK        End debug output at TICK
--debug-file=FILE       Sets the output file for debug. Append '.gz' to the
                        name for it to be compressed automatically [Default:
                        cout]
--debug-activate=EXPR[,EXPR]
                        Activate EXPR sim objects
--debug-ignore=EXPR     Ignore EXPR sim objects
--remote-gdb-port=REMOTE_GDB_PORT
                        Remote gdb base port (set to 0 to disable listening)

Help Options
------------
--list-sim-objects      List all built-in SimObjects, their params and default
                        values
[ perf record: Woken up 1 times to write data ]
[ perf record: Captured and wrote 0.052 MB perf.data (1247 samples) ]
32 ucacbbl@eden% s[K32 ucacbbl@eden% ssbse-challenge-examples/hello-custom-binary.py[18G[1@lss[1@s[1@ [1@-[1@l[1@ 
ls: cannot access ssbse-challenge-examples/hello-custom-binary.py: No such file or directory
33 ucacbbl@eden% [K33 ucacbbl@eden% ls -l ssbse-challenge-examples/hello-custom-binary.py[18Gperf record gem5.opt_nogprof ssbse-challenge-examples/hello-cus tom-binary.py --isa X86 --binary rnafold_example/higher_order_code[A[80G[80G[47G[1@g[80Gut[1@s[A[48G[80G[48G[1@e[80Gcs[1@u[A[49G[80G[49G[1@m[80G-u[1@c[A[50G[80G[50G[1@5[80Goc[1@-[A[51G[80G[51G[1@-[80Gl-[1@o[A[52Gss[1@s[80Glo[1@l[A[53G[80G[55G[1@s[80Gel[1@l[A[54G[80G[54G[1@b[80Ghl[1@e[A[55G[80G[57G[1@s[80G/e[1@h[A[56G[80G[56G[1@e[80Gsh[1@/[A[57G[80G[57G[1@-[80Ge/[1@s[A[58G[80G[58G[1@c[80Gls[1@e[A[59G[80G[59G[1@h[80Gpe[1@l[A[60G[80G[60G[1@a[80Gml[1@p[A[61G[80G[61G[1@l[80Gap[80G[1@m[80Gd e[2A[62G[80G[62G[1@l[80Gxm[80G[1@a[80Goede[2A[63G[80G[63G[1@e[80Gea[80G[1@x[80Gcdode[2A[64G[80G[64G[1@n[80G-x[80G[1@e[80G_ocode[2A[65G[80G[65G[1@g[80Gee[80G[1@-[80Grc[1@_[2A[66G[80G[66G[1@e[80Gg-[80G[1@e[80Ge_[1@r[2A[67G[80G[67G[1@-[80Gne[80G[1@g[80Gdr[1@e[2A[68G[80G[68G[1@2[80Geg[80G[1@n[80Gre[1@d[2A[69G[80G[69G[1@0[80Gln[80G[1@e[80God[1@r[2A[70G[1@2[80Gle[80G[1@l[80G_r[1@o[2A[71G[80G[71G[1@3[80Gal[80G[2G[1@l[80Gro[1@_[2A[72G[80G[72G[1@/[80Ghl[80G[1@a[80Ge_[1@r[2A[73G[80Gha[80Ger
gem5 Simulator System.  https://www.gem5.org
gem5 is copyrighted software; use the --copyright option for details.

gem5 version 23.0.0.1--SSBSE Challeng Track
gem5 compiled Jul 26 2023 09:55:33
gem5 started Aug  2 2023 10:08:55
gem5 executing on eden.cs.ucl.ac.uk, pid 22185
command line: gem5.opt_nogprof gem5-ssbse-challenge-2023/ssbse-challenge-examples/hello-custom-binary.py --isa X86 --binary rnafold_example/higher_order_code

Global frequency set at 1000000000000 ticks per second
warn: No dot file generated. Please install pydot to generate the dot file and pdf.
src/mem/dram_interface.cc:690: warn: DRAM device capacity (8192 Mbytes) does not match the address range assigned (32 Mbytes)
src/base/statistics.hh:279: warn: One of the stats is a legacy stat. Legacy stat is a stat that does not belong to any statistics::Group. Legacy stat is deprecated.
board.remote_gdb: Listening for connections on port 7000
src/sim/simulate.cc:194: info: Entering event queue @ 0.  Starting simulation...
3189 MOV_R_R
8353 CALL_NEAR_I
1387 PUSH_R
3189 MOV_R_R
1387 PUSH_R
1387 PUSH_R
1387 PUSH_R
1387 PUSH_R
3189 MOV_R_R
1387 PUSH_R
2938 SUB_R_I
12633 RDTSC
4372 SAL_R_I
3189 MOV_R_R
263 OR_R_R
3257 MOV_R_P
3199 MOV_P_R
3323 LEA_R_P
3189 MOV_R_R
995 SUB_R_P
3062 TEST_R_R
3199 MOV_P_R
3199 MOV_P_R
16715 JZ_I
3323 LEA_R_P
3997 MOV_R_I
3997 MOV_R_I
3997 MOV_R_I
3997 MOV_R_I
3997 MOV_R_I
104 ADD_R_R
104 ADD_R_R
3997 MOV_R_I
3997 MOV_R_I
8427 JMP_I
2996 CMP_R_I
1934 JBE_I
3323 LEA_R_P
3206 MOV_M_R
2793 ADD_R_I
3264 MOV_R_M
1916 JZ_I
3189 MOV_R_R
933 SUB_R_R
2996 CMP_R_I
16742 JNBE_I
3330 LEA_R_M
5384 SAR_1_R
2996 CMP_R_I
1934 JBE_I
3189 MOV_R_R
2996 CMP_R_I
1943 JNBE_I
3189 MOV_R_R
2996 CMP_R_I
16742 JNBE_I
8931 NEG_R
3206 MOV_M_R
8362 JMP_I
3189 MOV_R_R
3323 LEA_R_P
3206 MOV_M_R
1925 JNZ_I
3062 TEST_R_R
16715 JZ_I
3257 MOV_R_P
1916 JZ_I
121 ADD_M_R
3257 MOV_R_P
3257 MOV_R_P
3062 TEST_R_R
121 ADD_M_R
3257 MOV_R_P
3257 MOV_R_P
3062 TEST_R_R
121 ADD_M_R
3257 MOV_R_P
3257 MOV_R_P
16715 JZ_I
3264 MOV_R_M
3257 MOV_R_P
3257 MOV_R_P
3189 MOV_R_R
3189 MOV_R_R
3264 MOV_R_M
3062 TEST_R_R
3330 LEA_R_M
1916 JZ_I
3189 MOV_R_R
3997 MOV_R_I
8960 MUL_R
3264 MOV_R_M
4401 SHR_R_I
1245 CMP_R_R
12965 CMOVNBE_R_R
3330 LEA_R_M
3330 LEA_R_M
3006 CMP_P_I
1916 JZ_I
3257 MOV_R_P
3257 MOV_R_P
3264 MOV_R_M
3189 MOV_R_R
173 ADD_R_M
3189 MOV_R_R
933 SUB_R_R
1245 CMP_R_R
12878 CMOVZ_R_R
104 ADD_R_R
3330 LEA_R_M
1245 CMP_R_R
3264 MOV_R_M
1907 JNB_I
11700 HINT_NOP
3189 MOV_R_R
173 ADD_R_M
2793 ADD_R_I
3206 MOV_M_R
1898 JB_I
1245 CMP_R_R
3323 LEA_R_P
16733 JBE_I
3516 
3264 MOV_R_M
173 ADD_R_M
3189 MOV_R_R
3189 MOV_R_R
4401 SHR_R_I
3062 TEST_R_R
3330 LEA_R_M
3330 LEA_R_M
16715 JZ_I
3062 TEST_R_R
16715 JZ_I
18215 MOVZX_B_R_M
3264 MOV_R_M
166 ADD_R_P
2909 AND_R_I
2253 CMP_R_I
16715 JZ_I
2938 SUB_R_I
2996 CMP_R_I
16742 JNBE_I
1515 MOVSXD_R_M
104 ADD_R_R
9394 JMP_R
173 ADD_R_M
3206 MOV_M_R
2793 ADD_R_I
16742 JNBE_I
8362 JMP_I
3323 LEA_R_P
2089 OR_P_I
8353 CALL_NEAR_I
3264 MOV_R_M
1916 JZ_I
3264 MOV_R_M
3206 MOV_M_R
3264 MOV_R_M
3264 MOV_R_M
3330 LEA_R_M
104 ADD_R_R
3206 MOV_M_R
3330 LEA_R_M
3264 MOV_R_M
3206 MOV_M_R
3206 MOV_M_R
3330 LEA_R_M
3206 MOV_M_R
3330 LEA_R_M
3189 MOV_R_R
4372 SAL_R_I
933 SUB_R_R
3206 MOV_M_R
4504 RET_NEAR
3323 LEA_R_P
3199 MOV_P_R
3323 LEA_R_P
3199 MOV_P_R
3323 LEA_R_P
3199 MOV_P_R
3323 LEA_R_P
3199 MOV_P_R
3323 LEA_R_P
3189 MOV_R_R
3199 MOV_P_R
3199 MOV_P_R
8353 CALL_NEAR_I
2938 SUB_R_I
3264 MOV_R_M
3199 MOV_P_R
2793 ADD_R_I
3206 MOV_M_R
3199 MOV_P_R
3199 MOV_P_R
3535 CDQE_R
3330 LEA_R_M
3199 MOV_P_R
3013 CMP_M_I
1916 JZ_I
3330 LEA_R_M
3264 MOV_R_M
3323 LEA_R_P
4662 MOV_P_I
3199 MOV_P_R
3206 MOV_M_R
16715 JZ_I
18237 MOVZX_W_R_P
3257 MOV_R_P
3323 LEA_R_P
3257 MOV_R_P
3257 MOV_R_P
3189 MOV_R_R
3257 MOV_R_P
3257 MOV_R_P
1089 XOR_R_R
3257 MOV_R_P
3257 MOV_R_P
1089 XOR_R_R
1089 XOR_R_R
2938 SUB_R_I
2996 CMP_R_I
1943 JNBE_I
1515 MOVSXD_R_M
104 ADD_R_R
11700 HINT_NOP
2793 ADD_R_I
3264 MOV_R_M
1925 JNZ_I
3264 MOV_R_M
8362 JMP_I
3264 MOV_R_M
8362 JMP_I
3264 MOV_R_M
8362 JMP_I
3264 MOV_R_M
8362 JMP_I
3264 MOV_R_M
8362 JMP_I
3264 MOV_R_M
8362 JMP_I
3264 MOV_R_M
8362 JMP_I
3264 MOV_R_M
8362 JMP_I
3264 MOV_R_M
8362 JMP_I
3199 MOV_P_R
3206 MOV_M_R
3199 MOV_P_R
3199 MOV_P_R
3199 MOV_P_R
3199 MOV_P_R
3199 MOV_P_R
3199 MOV_P_R
3199 MOV_P_R
3199 MOV_P_R
1089 XOR_R_R
8353 CALL_NEAR_I
3997 MOV_R_I
3189 MOV_R_R
3189 MOV_R_R
10426 
1328 CMP_R_I
3189 MOV_R_R
1943 JNBE_I
3199 MOV_P_R
1089 XOR_R_R
1245 CMP_R_R
1943 JNBE_I
4504 RET_NEAR
3257 MOV_R_P
2270 CMP_M_I
1925 JNZ_I
4662 MOV_P_I
8353 CALL_NEAR_I
17361 
2438 SUB_R_I
2496 CMP_R_I
3199 MOV_P_R
1925 JNZ_I
2496 CMP_R_I
16715 JZ_I
1089 XOR_R_R
1089 XOR_R_R
3997 MOV_R_I
3006 CMP_P_I
2017 JLE_I
3997 MOV_R_I
1089 XOR_R_R
3199 MOV_P_R
3199 MOV_P_R
3199 MOV_P_R
3199 MOV_P_R
3257 MOV_R_P
8844 TEST_R_I
16715 JZ_I
3199 MOV_P_R
3199 MOV_P_R
3199 MOV_P_R
2293 ADD_R_I
1396 POP_R
1396 POP_R
1396 POP_R
1396 POP_R
1396 POP_R
1396 POP_R
3257 MOV_R_P
3062 TEST_R_R
1916 JZ_I
8353 CALL_NEAR_I
3189 MOV_R_R
2938 SUB_R_I
3257 MOV_R_P
3062 TEST_R_R
3257 MOV_R_P
3062 TEST_R_R
1925 JNZ_I
2996 CMP_R_I
1916 JZ_I
2793 ADD_R_I
3189 MOV_R_R
3323 LEA_R_P
1245 CMP_R_R
16715 JZ_I
3257 MOV_R_P
16724 JNZ_I
3264 MOV_R_M
3330 LEA_R_M
3189 MOV_R_R
3189 MOV_R_R
3257 MOV_R_P
9328 CALL_NEAR_R
2438 SUB_R_I
2839 OR_M_I
src/sim/mem_state.cc:443: info: Increasing stack size by one page.
2438 SUB_R_I
3323 LEA_R_P
3006 CMP_P_I
3189 MOV_R_R
3323 LEA_R_P
3199 MOV_P_R
3323 LEA_R_P
3206 MOV_M_R
3189 MOV_R_R
3199 MOV_P_R
3323 LEA_R_P
3199 MOV_P_R
3323 LEA_R_P
3199 MOV_P_R
3323 LEA_R_P
3199 MOV_P_R
3257 MOV_R_P
3206 MOV_M_R
621 SBB_R_R
8902 NOT_R
2909 AND_R_I
104 ADD_R_R
3199 MOV_P_R
8353 CALL_NEAR_I
3323 LEA_R_P
3264 MOV_R_M
3264 MOV_R_M
1916 JZ_I
3330 LEA_R_M
4669 MOV_M_I
3206 MOV_M_R
3330 LEA_R_M
3206 MOV_M_R
3264 MOV_R_M
8353 CALL_NEAR_I
3264 MOV_R_M
1916 JZ_I
3189 MOV_R_R
1916 JZ_I
3257 MOV_R_P
16724 JNZ_I
3257 MOV_R_P
3062 TEST_R_R
16715 JZ_I
3323 LEA_R_P
1262 CMP_M_R
4662 MOV_P_I
16724 JNZ_I
3323 LEA_R_P
1089 XOR_R_R
1089 XOR_R_R
3997 MOV_R_I
3189 MOV_R_R
8353 CALL_NEAR_I
3189 MOV_R_R
3189 MOV_R_R
3189 MOV_R_R
3206 MOV_M_R
3206 MOV_M_R
3206 MOV_M_R
8353 CALL_NEAR_I
2909 AND_R_I
3189 MOV_R_R
1916 JZ_I
8931 NEG_R
2793 ADD_R_I
16715 JZ_I
933 SUB_R_R
3257 MOV_R_P
3330 LEA_R_M
3189 MOV_R_R
4372 SAL_R_I
3062 TEST_R_R
1925 JNZ_I
3264 MOV_R_M
2409 AND_R_I
2996 CMP_R_I
621 SBB_R_R
8902 NOT_R
2409 AND_R_I
3062 TEST_R_R
3997 MOV_R_I
12907 CMOVNZ_R_R
3330 LEA_R_M
3997 MOV_R_I
3206 MOV_M_R
8353 CALL_NEAR_I
9404 JMP_P
3997 MOV_R_I
3189 MOV_R_R
263 OR_R_R
17960 IMUL_R_R
1943 JNBE_I
8362 JMP_I
9404 JMP_P
3997 MOV_R_I
8362 JMP_I
9404 JMP_P
3189 MOV_R_R
3257 MOV_R_P
16715 JZ_I
3257 MOV_R_P
3323 LEA_R_P
3330 LEA_R_M
777 AND_R_R
3199 MOV_P_R
8362 JMP_I
3330 LEA_R_M
8931 NEG_R
777 AND_R_R
3330 LEA_R_M
3199 MOV_P_R
1245 CMP_R_R
1907 JNB_I
3189 MOV_R_R
8931 NEG_R
1245 CMP_R_R
1898 JB_I
3189 MOV_R_R
8427 JMP_I
3199 MOV_P_R
3199 MOV_P_R
3189 MOV_R_R
3189 MOV_R_R
16715 JZ_I
3330 LEA_R_M
3264 MOV_R_M
3206 MOV_M_R
3189 MOV_R_R
3206 MOV_M_R
3330 LEA_R_M
3330 LEA_R_M
3206 MOV_M_R
8353 CALL_NEAR_I
2996 CMP_R_I
1907 JNB_I
8601 TEST_R_I
1916 JZ_I
18215 MOVZX_B_R_M
3177 MOV_M_R
9270 INC_R
9270 INC_R
8601 TEST_R_I
1916 JZ_I
8601 TEST_R_I
8601 TEST_R_I
1916 JZ_I
2409 AND_R_I
1916 JZ_I
3206 MOV_M_R
3264 MOV_R_M
4669 MOV_M_I
18215 MOVZX_B_R_M
3206 MOV_M_R
18215 MOVZX_B_R_M
2909 AND_R_I
2909 AND_R_I
263 OR_R_R
8611 TEST_P_I
3177 MOV_M_R
16715 JZ_I
4669 MOV_M_I
8362 JMP_I
3206 MOV_M_R
3206 MOV_M_R
1916 JZ_I
3330 LEA_R_M
3189 MOV_R_R
4372 SAL_R_I
3330 LEA_R_M
11700 HINT_NOP
3206 MOV_M_R
1925 JNZ_I
3330 LEA_R_M
3323 LEA_R_P
4669 MOV_M_I
3206 MOV_M_R
3330 LEA_R_M
3264 MOV_R_M
3062 TEST_R_R
1925 JNZ_I
8362 JMP_I
3189 MOV_R_R
3062 TEST_R_R
3330 LEA_R_M
16715 JZ_I
3206 MOV_M_R
3330 LEA_R_M
3206 MOV_M_R
18215 MOVZX_B_R_M
3033 TEST_R_R
16715 JZ_I
2793 ADD_R_I
3206 MOV_M_R
18244 MOVZX_W_R_M
1089 XOR_R_R
3189 MOV_R_R
3206 MOV_M_R
3264 MOV_R_M
3206 MOV_M_R
8353 CALL_NEAR_I
3323 LEA_R_P
9338 CALL_NEAR_P
2810 ADD_M_I
3330 LEA_R_M
3323 LEA_R_P
104 ADD_R_R
1925 JNZ_I
8427 JMP_I
3206 MOV_M_R
8427 JMP_I
3323 LEA_R_P
2810 ADD_M_I
3257 MOV_R_P
3206 MOV_M_R
2793 ADD_R_I
3199 MOV_P_R
3257 MOV_R_P
9394 JMP_R
2955 SUB_M_I
3257 MOV_R_P
3189 MOV_R_R
3206 MOV_M_R
3264 MOV_R_M
2810 ADD_M_I
4669 MOV_M_I
4669 MOV_M_I
4669 MOV_M_I
3330 LEA_R_M
4372 SAL_R_I
933 SUB_R_R
104 ADD_R_R
1245 CMP_R_R
16706 JNB_I
3257 MOV_R_P
3189 MOV_R_R
8931 NEG_R
8427 JMP_I
3264 MOV_R_M
2996 CMP_R_I
16715 JZ_I
3189 MOV_R_R
1002 SUB_R_M
3206 MOV_M_R
8362 JMP_I
2793 ADD_R_I
1245 CMP_R_R
16706 JNB_I
1934 JBE_I
2996 CMP_R_I
16715 JZ_I
2996 CMP_R_I
16715 JZ_I
3264 MOV_R_M
1089 XOR_R_R
173 ADD_R_M
3006 CMP_P_I
3323 LEA_R_P
3997 MOV_R_I
3199 MOV_P_R
3199 MOV_P_R
16724 JNZ_I
2996 CMP_R_I
16715 JZ_I
3264 MOV_R_M
3264 MOV_R_M
3189 MOV_R_R
777 AND_R_R
104 ADD_R_R
1314 CMP_R_M
1907 JNB_I
3206 MOV_M_R
173 ADD_R_M
104 ADD_R_R
1314 CMP_R_M
1934 JBE_I
3206 MOV_M_R
8618 TEST_M_I
16715 JZ_I
1314 CMP_R_M
16733 JBE_I
3206 MOV_M_R
8362 JMP_I
3206 MOV_M_R
8362 JMP_I
2496 CMP_R_I
16715 JZ_I
2496 CMP_R_I
16715 JZ_I
2996 CMP_R_I
1925 JNZ_I
3264 MOV_R_M
3199 MOV_P_R
8362 JMP_I
3206 MOV_M_R
3264 MOV_R_M
3206 MOV_M_R
8362 JMP_I
3264 MOV_R_M
3264 MOV_R_M
3264 MOV_R_M
3062 TEST_R_R
1916 JZ_I
3062 TEST_R_R
3006 CMP_P_I
16715 JZ_I
1916 JZ_I
3257 MOV_R_P
173 ADD_R_M
3257 MOV_R_P
3264 MOV_R_M
3189 MOV_R_R
3206 MOV_M_R
8353 CALL_NEAR_I
3235 MOV_R_M
1288 CMP_R_M
1925 JNZ_I
3997 MOV_R_I
3997 MOV_R_I
12820 CMOVB_R_R
3264 MOV_R_M
1916 JZ_I
3323 LEA_R_P
4662 MOV_P_I
4662 MOV_P_I
3199 MOV_P_R
3206 MOV_M_R
3033 TEST_R_R
16724 JNZ_I
3264 MOV_R_M
16715 JZ_I
3330 LEA_R_M
16715 JZ_I
3997 MOV_R_I
3997 MOV_R_I
3997 MOV_R_I
3997 MOV_R_I
3997 MOV_R_I
3997 MOV_R_I
3997 MOV_R_I
8427 JMP_I
1934 JBE_I
1916 JZ_I
3189 MOV_R_R
933 SUB_R_R
2996 CMP_R_I
1934 JBE_I
3330 LEA_R_M
5384 SAR_1_R
2996 CMP_R_I
16733 JBE_I
3189 MOV_R_R
2996 CMP_R_I
16742 JNBE_I
2996 CMP_R_I
16742 JNBE_I
3330 LEA_R_M
3206 MOV_M_R
8362 JMP_I
3189 MOV_R_R
3264 MOV_R_M
1916 JZ_I
3264 MOV_R_M
1916 JZ_I
3264 MOV_R_M
3013 CMP_M_I
8353 CALL_NEAR_I
3013 CMP_M_I
16715 JZ_I
3006 CMP_P_I
16715 JZ_I
3323 LEA_R_P
3997 MOV_R_I
8353 CALL_NEAR_I
3257 MOV_R_P
187 ADD_R_I
3206 MOV_M_R
8427 JMP_I
3264 MOV_R_M
1245 CMP_R_R
16715 JZ_I
8618 TEST_M_I
16715 JZ_I
3997 MOV_R_I
8362 JMP_I
3189 MOV_R_R
16715 JZ_I
3257 MOV_R_P
3264 MOV_R_M
3264 MOV_R_M
18244 MOVZX_W_R_M
173 ADD_R_M
3206 MOV_M_R
3206 MOV_M_R
1916 JZ_I
3206 MOV_M_R
1002 SUB_R_M
3189 MOV_R_R
173 ADD_R_M
104 ADD_R_R
104 ADD_R_R
3206 MOV_M_R
3206 MOV_M_R
3206 MOV_M_R
3206 MOV_M_R
16715 JZ_I
3264 MOV_R_M
3330 LEA_R_M
1916 JZ_I
3997 MOV_R_I
3997 MOV_R_I
3997 MOV_R_I
3997 MOV_R_I
3189 MOV_R_R
2996 CMP_R_I
1934 JBE_I
3330 LEA_R_M
5384 SAR_1_R
2996 CMP_R_I
16733 JBE_I
3189 MOV_R_R
2996 CMP_R_I
16742 JNBE_I
3189 MOV_R_R
2996 CMP_R_I
16742 JNBE_I
2793 ADD_R_I
1916 JZ_I
16715 JZ_I
3264 MOV_R_M
16715 JZ_I
3997 MOV_R_I
3997 MOV_R_I
3997 MOV_R_I
3997 MOV_R_I
3997 MOV_R_I
3997 MOV_R_I
8362 JMP_I
3264 MOV_R_M
1916 JZ_I
3264 MOV_R_M
3264 MOV_R_M
1916 JZ_I
3264 MOV_R_M
1916 JZ_I
3264 MOV_R_M
3264 MOV_R_M
1916 JZ_I
3264 MOV_R_M
1916 JZ_I
3264 MOV_R_M
3264 MOV_R_M
1916 JZ_I
3013 CMP_M_I
8353 CALL_NEAR_I
3264 MOV_R_M
1916 JZ_I
3264 MOV_R_M
3330 LEA_R_M
2096 OR_M_I
4669 MOV_M_I
4669 MOV_M_I
3206 MOV_M_R
3264 MOV_R_M
1916 JZ_I
8353 CALL_NEAR_I
3264 MOV_R_M
1925 JNZ_I
3206 MOV_M_R
3206 MOV_M_R
3323 LEA_R_P
3199 MOV_P_R
3206 MOV_M_R
3330 LEA_R_M
3199 MOV_P_R
3206 MOV_M_R
8353 CALL_NEAR_I
2438 SUB_R_I
3257 MOV_R_P
16715 JZ_I
18244 MOVZX_W_R_M
3264 MOV_R_M
3206 MOV_M_R
16715 JZ_I
3330 LEA_R_M
8353 CALL_NEAR_I
3997 MOV_R_I
1328 CMP_R_I
1907 JNB_I
3330 LEA_R_M
1925 JNZ_I
18550 MOVSX_B_R_M
3330 LEA_R_M
2253 CMP_R_I
1943 JNBE_I
18550 MOVSX_B_R_M
3330 LEA_R_M
2938 SUB_R_I
3330 LEA_R_M
2253 CMP_R_I
1943 JNBE_I
4372 SAL_R_I
2793 ADD_R_I
3330 LEA_R_M
263 OR_R_R
2253 CMP_R_I
2996 CMP_R_I
1925 JNZ_I
16715 JZ_I
2293 ADD_R_I
16762 JS_I
3257 MOV_R_P
16724 JNZ_I
3199 MOV_P_R
1328 CMP_R_I
16825 JNLE_I
3257 MOV_R_P
8353 CALL_NEAR_I
3323 LEA_R_P
3323 LEA_R_P
3257 MOV_R_P
3257 MOV_R_P
8353 CALL_NEAR_I
2938 SUB_R_I
3257 MOV_R_P
3206 MOV_M_R
3206 MOV_M_R
3206 MOV_M_R
16991 SETNZ_R
3206 MOV_M_R
3189 MOV_R_R
3206 MOV_M_R
3257 MOV_R_P
3177 MOV_M_R
18198 MOVZX_B_R_R
3206 MOV_M_R
777 AND_R_R
1916 JZ_I
3257 MOV_R_P
3206 MOV_M_R
16715 JZ_I
3264 MOV_R_M
18244 MOVZX_W_R_M
3206 MOV_M_R
16715 JZ_I
3330 LEA_R_M
3189 MOV_R_R
2409 AND_R_I
933 SUB_R_R
3189 MOV_R_R
8427 JMP_I
1245 CMP_R_R
1925 JNZ_I
860 AND_R_I
3330 LEA_R_M
933 SUB_R_R
2839 OR_M_I
3330 LEA_R_M
3206 MOV_M_R
2926 AND_M_I
11700 HINT_NOP
1916 JZ_I
2270 CMP_M_I
1916 JZ_I
173 ADD_R_M
3323 LEA_R_P
2996 CMP_R_I
3206 MOV_M_R
4669 MOV_M_I
3264 MOV_R_M
16715 JZ_I
3264 MOV_R_M
3330 LEA_R_M
4669 MOV_M_I
3330 LEA_R_M
8353 CALL_NEAR_I
3189 MOV_R_R
16715 JZ_I
3206 MOV_M_R
3264 MOV_R_M
3330 LEA_R_M
3189 MOV_R_R
3206 MOV_M_R
3264 MOV_R_M
4669 MOV_M_I
104 ADD_R_R
3206 MOV_M_R
3330 LEA_R_M
3264 MOV_R_M
8353 CALL_NEAR_I
1907 JNB_I
18244 MOVZX_W_R_M
3206 MOV_M_R
2793 ADD_R_I
2793 ADD_R_I
1916 JZ_I
3264 MOV_R_M
4626 MOV_M_I
4669 MOV_M_I
3264 MOV_R_M
3206 MOV_M_R
8362 JMP_I
3330 LEA_R_M
3189 MOV_R_R
3997 MOV_R_I
3199 MOV_P_R
8353 CALL_NEAR_I
3189 MOV_R_R
3199 MOV_P_R
16715 JZ_I
3257 MOV_R_P
3997 MOV_R_I
3330 LEA_R_M
4401 SHR_R_I
3330 LEA_R_M
3330 LEA_R_M
4372 SAL_R_I
8353 CALL_NEAR_I
3257 MOV_R_P
3330 LEA_R_M
777 AND_R_R
3189 MOV_R_R
16715 JZ_I
3997 MOV_R_I
3997 MOV_R_I
3997 MOV_R_I
3189 MOV_R_R
8353 CALL_NEAR_I
3189 MOV_R_R
3189 MOV_R_R
1916 JZ_I
1498 MOVSXD_R_R
1498 MOVSXD_R_R
3189 MOV_R_R
3189 MOV_R_R
1498 MOVSXD_R_R
3189 MOV_R_R
3997 MOV_R_I
1943 JNBE_I
2996 CMP_R_I
1307 CMP_R_P
12888 CMOVZ_R_P
104 ADD_R_R
3199 MOV_P_R
104 ADD_R_R
3206 MOV_M_R
16715 JZ_I
3199 MOV_P_R
3323 LEA_R_P
4662 MOV_P_I
4669 MOV_M_I
3206 MOV_M_R
3323 LEA_R_P
4669 MOV_M_I
3206 MOV_M_R
16715 JZ_I
3189 MOV_R_R
5326 SHR_1_R
104 ADD_R_R
16715 JZ_I
2996 CMP_R_I
16733 JBE_I
8362 JMP_I
4669 MOV_M_I
1245 CMP_R_R
16742 JNBE_I
3330 LEA_R_M
4669 MOV_M_I
16733 JBE_I
3330 LEA_R_M
3330 LEA_R_M
3323 LEA_R_P
3206 MOV_M_R
3206 MOV_M_R
3323 LEA_R_P
4669 MOV_M_I
4669 MOV_M_I
3206 MOV_M_R
4372 SAL_R_I
4401 SHR_R_I
1245 CMP_R_R
12965 CMOVNBE_R_R
2996 CMP_R_I
16742 JNBE_I
2996 CMP_R_I
4669 MOV_M_I
16733 JBE_I
2996 CMP_R_I
4669 MOV_M_I
16733 JBE_I
3997 MOV_R_I
8362 JMP_I
1245 CMP_R_R
1916 JZ_I
3257 MOV_R_P
4669 MOV_M_I
4662 MOV_P_I
4669 MOV_M_I
1916 JZ_I
3264 MOV_R_M
3264 MOV_R_M
4669 MOV_M_I
16715 JZ_I
4669 MOV_M_I
8362 JMP_I
4662 MOV_P_I
3257 MOV_R_P
8353 CALL_NEAR_I
3257 MOV_R_P
3013 CMP_M_I
1925 JNZ_I
4669 MOV_M_I
3330 LEA_R_M
3323 LEA_R_P
3206 MOV_M_R
4372 SAL_R_I
3264 MOV_R_M
3323 LEA_R_P
3206 MOV_M_R
3206 MOV_M_R
3006 CMP_P_I
3206 MOV_M_R
4669 MOV_M_I
1925 JNZ_I
3257 MOV_R_P
3264 MOV_R_M
3199 MOV_P_R
18208 MOVZX_B_R_P
2803 ADD_P_I
2822 OR_R_I
3170 MOV_P_R
3323 LEA_R_P
3206 MOV_M_R
2803 ADD_P_I
3006 CMP_P_I
3199 MOV_P_R
1925 JNZ_I
3013 CMP_M_I
16962 SETZ_R
3199 MOV_P_R
3257 MOV_R_P
18244 MOVZX_W_R_M
173 ADD_R_M
3330 LEA_R_M
3199 MOV_P_R
4372 SAL_R_I
3199 MOV_P_R
933 SUB_R_R
3330 LEA_R_M
1916 JZ_I
3264 MOV_R_M
2938 SUB_R_I
2938 SUB_R_I
2496 CMP_R_I
1925 JNZ_I
3264 MOV_R_M
3199 MOV_P_R
3264 MOV_R_M
3199 MOV_P_R
3006 CMP_P_I
3006 CMP_P_I
3323 LEA_R_P
16724 JNZ_I
16724 JNZ_I
4626 MOV_M_I
4669 MOV_M_I
8353 CALL_NEAR_I
2263 CMP_P_I
3257 MOV_R_P
3206 MOV_M_R
3264 MOV_R_M
3264 MOV_R_M
3206 MOV_M_R
3257 MOV_R_P
16715 JZ_I
3264 MOV_R_M
4669 MOV_M_I
8353 CALL_NEAR_I
8362 JMP_I
3257 MOV_R_P
16724 JNZ_I
3257 MOV_R_P
16724 JNZ_I
3323 LEA_R_P
3997 MOV_R_I
8353 CALL_NEAR_I
3997 MOV_R_I
3323 LEA_R_P
8931 NEG_R
3206 MOV_M_R
2822 OR_R_I
16715 JZ_I
3264 MOV_R_M
16724 JNZ_I
4372 SAL_R_I
3189 MOV_R_R
263 OR_R_R
2996 CMP_R_I
16962 SETZ_R
3189 MOV_R_R
8353 CALL_NEAR_I
3330 LEA_R_M
3330 LEA_R_M
4401 SHR_R_I
3206 MOV_M_R
2409 AND_R_I
3206 MOV_M_R
933 SUB_R_R
3206 MOV_M_R
1245 CMP_R_R
3330 LEA_R_M
2839 OR_M_I
3330 LEA_R_M
3264 MOV_R_M
2909 AND_R_I
3330 LEA_R_M
4669 MOV_M_I
3206 MOV_M_R
3206 MOV_M_R
3206 MOV_M_R
18215 MOVZX_B_R_M
2909 AND_R_I
2822 OR_R_I
3177 MOV_M_R
16715 JZ_I
3206 MOV_M_R
4669 MOV_M_I
8362 JMP_I
4669 MOV_M_I
3206 MOV_M_R
3206 MOV_M_R
4669 MOV_M_I
3257 MOV_R_P
4669 MOV_M_I
4662 MOV_P_I
4669 MOV_M_I
3206 MOV_M_R
3330 LEA_R_M
3330 LEA_R_M
3206 MOV_M_R
3330 LEA_R_M
3206 MOV_M_R
3330 LEA_R_M
3206 MOV_M_R
3264 MOV_R_M
3013 CMP_M_I
16715 JZ_I
3013 CMP_M_I
16724 JNZ_I
1262 CMP_M_R
16715 JZ_I
3013 CMP_M_I
16715 JZ_I
3264 MOV_R_M
3264 MOV_R_M
3206 MOV_M_R
3206 MOV_M_R
3264 MOV_R_M
3264 MOV_R_M
3206 MOV_M_R
3264 MOV_R_M
3206 MOV_M_R
16715 JZ_I
3264 MOV_R_M
3206 MOV_M_R
3516 
16724 JNZ_I
3264 MOV_R_M
173 ADD_R_M
8353 CALL_NEAR_I
3997 MOV_R_I
8353 CALL_NEAR_I
2909 AND_R_I
8931 NEG_R
2793 ADD_R_I
3235 MOV_R_M
1219 CMP_R_R
16715 JZ_I
3033 TEST_R_R
16715 JZ_I
9270 INC_R
9299 DEC_R
3997 MOV_R_I
18198 MOVZX_B_R_R
17960 IMUL_R_R
3997 MOV_R_I
11700 HINT_NOP
3264 MOV_R_M
2793 ADD_R_I
1089 XOR_R_R
16706 JNB_I
1089 XOR_R_R
263 OR_R_R
9270 INC_R
16724 JNZ_I
16706 JNB_I
16724 JNZ_I
3264 MOV_R_M
3264 MOV_R_M
3323 LEA_R_P
3264 MOV_R_M
3264 MOV_R_M
3206 MOV_M_R
8353 CALL_NEAR_I
2438 SUB_R_I
3206 MOV_M_R
3206 MOV_M_R
3206 MOV_M_R
3206 MOV_M_R
4669 MOV_M_I
9338 CALL_NEAR_P
3323 LEA_R_P
3206 MOV_M_R
3330 LEA_R_M
3206 MOV_M_R
8353 CALL_NEAR_I
3206 MOV_M_R
3189 MOV_R_R
1151 XOR_R_P
4256 ROL_R_I
3206 MOV_M_R
3206 MOV_M_R
3206 MOV_M_R
3206 MOV_M_R
3206 MOV_M_R
3330 LEA_R_M
1151 XOR_R_P
4256 ROL_R_I
3206 MOV_M_R
1151 XOR_R_P
3206 MOV_M_R
1925 JNZ_I
3264 MOV_R_M
3330 LEA_R_M
3264 MOV_R_M
3264 MOV_R_M
3206 MOV_M_R
9328 CALL_NEAR_R
3264 MOV_R_M
3264 MOV_R_M
3264 MOV_R_M
3264 MOV_R_M
2909 AND_R_I
18198 MOVZX_B_R_R
3033 TEST_R_R
12907 CMOVNZ_R_R
3264 MOV_R_M
8353 CALL_NEAR_I
3330 LEA_R_M
3323 LEA_R_P
3189 MOV_R_R
3189 MOV_R_R
2438 SUB_R_I
3264 MOV_R_M
3206 MOV_M_R
3206 MOV_M_R
1925 JNZ_I
18215 MOVZX_B_R_M
3812 TEST_R_I
3812 TEST_R_I
1925 JNZ_I
8353 CALL_NEAR_I
3264 MOV_R_M
8353 CALL_NEAR_I
3264 MOV_R_M
1925 JNZ_I
3264 MOV_R_M
3189 MOV_R_R
8353 CALL_NEAR_I
1925 JNZ_I
3264 MOV_R_M
3189 MOV_R_R
1916 JZ_I
8618 TEST_M_I
16715 JZ_I
3264 MOV_R_M
16715 JZ_I
3264 MOV_R_M
3264 MOV_R_M
3264 MOV_R_M
173 ADD_R_M
8353 CALL_NEAR_I
16724 JNZ_I
8611 TEST_P_I
16724 JNZ_I
3257 MOV_R_P
3062 TEST_R_R
16724 JNZ_I
3189 MOV_R_R
4669 MOV_M_I
2409 AND_R_I
3997 MOV_R_I
4626 MOV_M_I
8353 CALL_NEAR_I
16715 JZ_I
8353 CALL_NEAR_I
9299 DEC_R
1907 JNB_I
1925 JNZ_I
2938 SUB_R_I
1916 JZ_I
3033 TEST_R_R
1916 JZ_I
8844 TEST_R_I
8844 TEST_R_I
4401 SHR_R_I
8611 TEST_P_I
16724 JNZ_I
3062 TEST_R_R
16715 JZ_I
3013 CMP_M_I
16715 JZ_I
3257 MOV_R_P
3206 MOV_M_R
3206 MOV_M_R
4626 MOV_M_I
3189 MOV_R_R
3206 MOV_M_R
3330 LEA_R_M
3206 MOV_M_R
3330 LEA_R_M
3206 MOV_M_R
3330 LEA_R_M
8427 JMP_I
3264 MOV_R_M
3330 LEA_R_M
1916 JZ_I
3264 MOV_R_M
16715 JZ_I
2270 CMP_M_I
3264 MOV_R_M
3264 MOV_R_M
16715 JZ_I
3264 MOV_R_M
16715 JZ_I
18215 MOVZX_B_R_M
1322 CMP_R_I
16715 JZ_I
3264 MOV_R_M
3330 LEA_R_M
16715 JZ_I
3006 CMP_P_I
16715 JZ_I
3997 MOV_R_I
8362 JMP_I
16991 SETNZ_R
751 AND_R_R
3177 MOV_M_R
3177 MOV_M_R
1916 JZ_I
3264 MOV_R_M
3330 LEA_R_M
18215 MOVZX_B_R_M
3177 MOV_M_R
8844 TEST_R_I
16724 JNZ_I
3257 MOV_R_P
3062 TEST_R_R
16724 JNZ_I
8353 CALL_NEAR_I
3189 MOV_R_R
8611 TEST_P_I
16724 JNZ_I
3257 MOV_R_P
16715 JZ_I
3323 LEA_R_P
3323 LEA_R_P
8353 CALL_NEAR_I
3189 MOV_R_R
3189 MOV_R_R
3997 MOV_R_I
4652 MOV_R_I
2438 SUB_R_I
8353 CALL_NEAR_I
3997 MOV_R_I
3189 MOV_R_R
1963 JS_I
3189 MOV_R_R
3189 MOV_R_R
3997 MOV_R_I
8353 CALL_NEAR_I
2996 CMP_R_I
3189 MOV_R_R
1943 JNBE_I
1498 MOVSXD_R_R
3189 MOV_R_R
3997 MOV_R_I
1963 JS_I
3264 MOV_R_M
3206 MOV_M_R
1925 JNZ_I
3189 MOV_R_R
3997 MOV_R_I
3189 MOV_R_R
8353 CALL_NEAR_I
3189 MOV_R_R
8427 JMP_I
3189 MOV_R_R
8353 CALL_NEAR_I
3997 MOV_R_I
2293 ADD_R_I
16715 JZ_I
3257 MOV_R_P
2996 CMP_R_I
1934 JBE_I
3323 LEA_R_P
3997 MOV_R_I
3189 MOV_R_R
8353 CALL_NEAR_I
3189 MOV_R_R
2438 SUB_R_I
2996 CMP_R_I
16733 JBE_I
18215 MOVZX_B_R_M
18215 MOVZX_B_R_M
3330 LEA_R_M
1925 JNZ_I
933 SUB_R_R
1245 CMP_R_R
3189 MOV_R_R
2793 ADD_R_I
18215 MOVZX_B_R_M
18215 MOVZX_B_R_M
1925 JNZ_I
2293 ADD_R_I
1925 JNZ_I
3264 MOV_R_M
3199 MOV_P_R
3330 LEA_R_M
2909 AND_R_I
3330 LEA_R_M
2793 ADD_R_I
3199 MOV_P_R
1898 JB_I
3323 LEA_R_P
3997 MOV_R_I
8353 CALL_NEAR_I
8601 TEST_R_I
3189 MOV_R_R
1916 JZ_I
18215 MOVZX_B_R_M
2793 ADD_R_I
2793 ADD_R_I
933 SUB_R_R
1916 JZ_I
8601 TEST_R_I
3189 MOV_R_R
1925 JNZ_I
18215 MOVZX_B_R_M
16724 JNZ_I
3189 MOV_R_R
4401 SHR_R_I
2909 AND_R_I
16724 JNZ_I
4372 SAL_R_I
3997 MOV_R_I
3189 MOV_R_R
2909 AND_R_I
933 SUB_R_R
2909 AND_R_I
2996 CMP_R_I
16715 JZ_I
2938 SUB_R_I
3264 MOV_R_M
3264 MOV_R_M
3264 MOV_R_M
16715 JZ_I
3189 MOV_R_R
5783 SAL_R_R
3189 MOV_R_R
5812 SHR_R_R
263 OR_R_R
1245 CMP_R_R
16715 JZ_I
2909 AND_R_I
104 ADD_R_R
104 ADD_R_R
3189 MOV_R_R
8362 JMP_I
3257 MOV_R_P
2996 CMP_R_I
16715 JZ_I
3330 LEA_R_M
3264 MOV_R_M
3257 MOV_R_P
950 SUB_M_R
2938 SUB_R_I
3264 MOV_R_M
3257 MOV_R_P
3206 MOV_M_R
3206 MOV_M_R
1963 JS_I
3189 MOV_R_R
5384 SAR_1_R
1498 MOVSXD_R_R
3264 MOV_R_M
1245 CMP_R_R
1934 JBE_I
8427 JMP_I
104 ADD_R_R
8353 CALL_NEAR_I
18550 MOVSX_B_R_M
18550 MOVSX_B_R_M
3033 TEST_R_R
16715 JZ_I
3330 LEA_R_M
2253 CMP_R_I
3330 LEA_R_M
16742 JNBE_I
1934 JBE_I
1219 CMP_R_R
18550 MOVSX_B_R_M
2793 ADD_R_I
2793 ADD_R_I
16724 JNZ_I
933 SUB_R_R
16715 JZ_I
1972 JNS_I
3330 LEA_R_M
1245 CMP_R_R
2017 JLE_I
3330 LEA_R_M
3257 MOV_R_P
3189 MOV_R_R
4401 SHR_R_I
3330 LEA_R_M
3264 MOV_R_M
1262 CMP_M_R
1934 JBE_I
3330 LEA_R_M
2026 JNLE_I
16742 JNBE_I
3330 LEA_R_M
3330 LEA_R_M
3330 LEA_R_M
3189 MOV_R_R
3330 LEA_R_M
1322 CMP_R_I
1943 JNBE_I
3330 LEA_R_M
2253 CMP_R_I
3189 MOV_R_R
1943 JNBE_I
1245 CMP_R_R
16715 JZ_I
18533 MOVSX_B_R_R
3062 TEST_R_R
3206 MOV_M_R
2017 JLE_I
3330 LEA_R_M
3257 MOV_R_P
1498 MOVSXD_R_R
3330 LEA_R_M
3264 MOV_R_M
1262 CMP_M_R
1943 JNBE_I
3206 MOV_M_R
8353 CALL_NEAR_I
3264 MOV_R_M
1916 JZ_I
3062 TEST_R_R
3257 MOV_R_P
1916 JZ_I
3330 LEA_R_M
1498 MOVSXD_R_R
3330 LEA_R_M
3264 MOV_R_M
1934 JBE_I
3189 MOV_R_R
3189 MOV_R_R
3257 MOV_R_P
3189 MOV_R_R
3264 MOV_R_M
846 AND_R_M
3997 MOV_R_I
3206 MOV_M_R
280 OR_M_R
8919 NOT_M
1314 CMP_R_M
1498 MOVSXD_R_R
3330 LEA_R_M
2513 CMP_M_I
1925 JNZ_I
3264 MOV_R_M
1262 CMP_M_R
1934 JBE_I
3264 MOV_R_M
3079 TEST_M_R
1925 JNZ_I
3257 MOV_R_P
1314 CMP_R_M
16697 JB_I
2506 CMP_P_I
3330 LEA_R_M
16724 JNZ_I
8611 TEST_P_I
16724 JNZ_I
16715 JZ_I
8353 CALL_NEAR_I
1907 JNB_I
1925 JNZ_I
1907 JNB_I
1925 JNZ_I
2793 ADD_R_I
2909 AND_R_I
8427 JMP_I
3189 MOV_R_R
8353 CALL_NEAR_I
3264 MOV_R_M
3264 MOV_R_M
3206 MOV_M_R
3206 MOV_M_R
2938 SUB_R_I
3330 LEA_R_M
3330 LEA_R_M
1925 JNZ_I
8353 CALL_NEAR_I
8353 CALL_NEAR_I
3330 LEA_R_M
8353 CALL_NEAR_I
1916 JZ_I
3189 MOV_R_R
8362 JMP_I
16715 JZ_I
2270 CMP_M_I
16715 JZ_I
8618 TEST_M_I
16715 JZ_I
3330 LEA_R_M
3330 LEA_R_M
4669 MOV_M_I
3189 MOV_R_R
3997 MOV_R_I
3206 MOV_M_R
8353 CALL_NEAR_I
3189 MOV_R_R
3264 MOV_R_M
3206 MOV_M_R
3206 MOV_M_R
3206 MOV_M_R
3257 MOV_R_P
16724 JNZ_I
3264 MOV_R_M
8353 CALL_NEAR_I
2996 CMP_R_I
3206 MOV_M_R
16715 JZ_I
4662 MOV_P_I
4669 MOV_M_I
3997 MOV_R_I
3264 MOV_R_M
3330 LEA_R_M
933 SUB_R_R
8353 CALL_NEAR_I
3997 MOV_R_I
16816 JLE_I
173 ADD_R_M
2996 CMP_R_I
1934 JBE_I
2996 CMP_R_I
16816 JLE_I
3330 LEA_R_M
3323 LEA_R_P
3997 MOV_R_I
8353 CALL_NEAR_I
16724 JNZ_I
3323 LEA_R_P
8353 CALL_NEAR_I
16715 JZ_I
18215 MOVZX_B_R_M
16724 JNZ_I
3330 LEA_R_M
3323 LEA_R_P
3997 MOV_R_I
8353 CALL_NEAR_I
16724 JNZ_I
3013 CMP_M_I
3013 CMP_M_I
16724 JNZ_I
18244 MOVZX_W_R_M
3330 LEA_R_M
2996 CMP_R_I
16742 JNBE_I
2996 CMP_R_I
16715 JZ_I
3013 CMP_M_I
16724 JNZ_I
18244 MOVZX_W_R_M
18227 MOVZX_W_R_R
3330 LEA_R_M
4372 SAL_R_I
933 SUB_R_R
3264 MOV_R_M
3330 LEA_R_M
1245 CMP_R_R
16742 JNBE_I
3330 LEA_R_M
104 ADD_R_R
1245 CMP_R_R
16706 JNB_I
3189 MOV_R_R
4669 MOV_M_I
8427 JMP_I
3013 CMP_M_I
1925 JNZ_I
18227 MOVZX_W_R_R
2793 ADD_R_I
3330 LEA_R_M
104 ADD_R_R
1245 CMP_R_R
16706 JNB_I
3264 MOV_R_M
2996 CMP_R_I
1934 JBE_I
3013 CMP_M_I
1934 JBE_I
3264 MOV_R_M
3330 LEA_R_M
1314 CMP_R_M
3330 LEA_R_M
16733 JBE_I
3323 LEA_R_P
3997 MOV_R_I
8353 CALL_NEAR_I
16715 JZ_I
16697 JB_I
2996 CMP_R_I
16724 JNZ_I
3264 MOV_R_M
3264 MOV_R_M
3330 LEA_R_M
3330 LEA_R_M
2793 ADD_R_I
1245 CMP_R_R
3264 MOV_R_M
16715 JZ_I
3206 MOV_M_R
3330 LEA_R_M
3330 LEA_R_M
3206 MOV_M_R
11700 HINT_NOP
18215 MOVZX_B_R_M
18215 MOVZX_B_R_M
1916 JZ_I
8362 JMP_I
18198 MOVZX_B_R_R
933 SUB_R_R
1925 JNZ_I
3264 MOV_R_M
3264 MOV_R_M
3330 LEA_R_M
2793 ADD_R_I
2793 ADD_R_I
2909 AND_R_I
2909 AND_R_I
3330 LEA_R_M
16742 JNBE_I
933 SUB_R_R
104 ADD_R_R
16697 JB_I
16724 JNZ_I
3264 MOV_R_M
3264 MOV_R_M
3264 MOV_R_M
2938 SUB_R_I
3189 MOV_R_R
3264 MOV_R_M
5783 SAL_R_R
3264 MOV_R_M
5812 SHR_R_R
263 OR_R_R
1245 CMP_R_R
16715 JZ_I
2938 SUB_R_I
16715 JZ_I
16715 JZ_I
3264 MOV_R_M
3264 MOV_R_M
3264 MOV_R_M
3264 MOV_R_M
16715 JZ_I
3257 MOV_R_P
16715 JZ_I
18198 MOVZX_B_R_R
18198 MOVZX_B_R_R
18198 MOVZX_B_R_R
4372 SAL_R_I
104 ADD_R_R
4372 SAL_R_I
104 ADD_R_R
1245 CMP_R_R
16733 JBE_I
3264 MOV_R_M
8353 CALL_NEAR_I
9404 JMP_P
1307 CMP_R_P
1916 JZ_I
3264 MOV_R_M
3264 MOV_R_M
16715 JZ_I
3206 MOV_M_R
8362 JMP_I
8611 TEST_P_I
16715 JZ_I
12907 CMOVNZ_R_R
2996 CMP_R_I
16715 JZ_I
3257 MOV_R_P
3264 MOV_R_M
3330 LEA_R_M
3264 MOV_R_M
3206 MOV_M_R
3189 MOV_R_R
3206 MOV_M_R
3206 MOV_M_R
3330 LEA_R_M
3206 MOV_M_R
3264 MOV_R_M
3206 MOV_M_R
8353 CALL_NEAR_I
3189 MOV_R_R
3189 MOV_R_R
2438 SUB_R_I
3206 MOV_M_R
3264 MOV_R_M
3206 MOV_M_R
3206 MOV_M_R
3206 MOV_M_R
3206 MOV_M_R
8353 CALL_NEAR_I
1916 JZ_I
3330 LEA_R_M
3189 MOV_R_R
3206 MOV_M_R
8353 CALL_NEAR_I
16762 JS_I
3264 MOV_R_M
3323 LEA_R_P
3330 LEA_R_M
3264 MOV_R_M
16715 JZ_I
3264 MOV_R_M
3264 MOV_R_M
8427 JMP_I
8618 TEST_M_I
1262 CMP_M_R
1925 JNZ_I
3264 MOV_R_M
16715 JZ_I
3013 CMP_M_I
16724 JNZ_I
8618 TEST_M_I
16724 JNZ_I
8611 TEST_P_I
16724 JNZ_I
3264 MOV_R_M
4626 MOV_M_I
3264 MOV_R_M
16715 JZ_I
3264 MOV_R_M
3264 MOV_R_M
3189 MOV_R_R
3264 MOV_R_M
3264 MOV_R_M
3264 MOV_R_M
8353 CALL_NEAR_I
2793 ADD_R_I
3264 MOV_R_M
16724 JNZ_I
3264 MOV_R_M
8353 CALL_NEAR_I
3330 LEA_R_M
2253 CMP_R_I
1925 JNZ_I
8362 JMP_I
8353 CALL_NEAR_I
8427 JMP_I
3264 MOV_R_M
3264 MOV_R_M
8353 CALL_NEAR_I
8427 JMP_I
2270 CMP_M_I
3330 LEA_R_M
1925 JNZ_I
1245 CMP_R_R
12878 CMOVZ_R_R
4626 MOV_M_I
8362 JMP_I
3206 MOV_M_R
16715 JZ_I
3264 MOV_R_M
3264 MOV_R_M
3264 MOV_R_M
3206 MOV_M_R
18244 MOVZX_W_R_M
3206 MOV_M_R
18244 MOVZX_W_R_M
18227 MOVZX_W_R_R
3206 MOV_M_R
3330 LEA_R_M
4372 SAL_R_I
933 SUB_R_R
3330 LEA_R_M
1314 CMP_R_M
16742 JNBE_I
3330 LEA_R_M
3206 MOV_M_R
2793 ADD_R_I
2409 AND_R_I
933 SUB_R_R
2409 AND_R_I
3330 LEA_R_M
933 SUB_R_R
3330 LEA_R_M
104 ADD_R_R
3206 MOV_M_R
4418 SHR_M_I
1245 CMP_R_R
3264 MOV_R_M
3330 LEA_R_M
16706 JNB_I
3264 MOV_R_M
3189 MOV_R_R
1089 XOR_R_R
4669 MOV_M_I
2409 AND_R_I
3206 MOV_M_R
3189 MOV_R_R
3189 MOV_R_R
8427 JMP_I
3264 MOV_R_M
2996 CMP_R_I
16715 JZ_I
3264 MOV_R_M
3206 MOV_M_R
8362 JMP_I
2793 ADD_R_I
4372 SAL_R_I
933 SUB_R_R
104 ADD_R_R
16706 JNB_I
1943 JNBE_I
2996 CMP_R_I
16715 JZ_I
2996 CMP_R_I
1925 JNZ_I
3257 MOV_R_P
3264 MOV_R_M
3330 LEA_R_M
3062 TEST_R_R
16724 JNZ_I
3264 MOV_R_M
3264 MOV_R_M
3189 MOV_R_R
933 SUB_R_R
3062 TEST_R_R
16724 JNZ_I
3264 MOV_R_M
3330 LEA_R_M
1314 CMP_R_M
16742 JNBE_I
3330 LEA_R_M
104 ADD_R_R
3189 MOV_R_R
173 ADD_R_M
3330 LEA_R_M
173 ADD_R_M
104 ADD_R_R
777 AND_R_R
777 AND_R_R
777 AND_R_R
2996 CMP_R_I
3206 MOV_M_R
3206 MOV_M_R
3206 MOV_M_R
3206 MOV_M_R
3206 MOV_M_R
1934 JBE_I
3264 MOV_R_M
3997 MOV_R_I
3189 MOV_R_R
4372 SAL_R_I
5870 SAR_R_R
2909 AND_R_I
3206 MOV_M_R
8362 JMP_I
1314 CMP_R_M
3997 MOV_R_I
12907 CMOVNZ_R_R
3206 MOV_M_R
3264 MOV_R_M
3206 MOV_M_R
8427 JMP_I
2496 CMP_R_I
16715 JZ_I
2496 CMP_R_I
16715 JZ_I
2996 CMP_R_I
16715 JZ_I
16715 JZ_I
3264 MOV_R_M
3206 MOV_M_R
3206 MOV_M_R
1916 JZ_I
3330 LEA_R_M
846 AND_R_M
3206 MOV_M_R
3264 MOV_R_M
3206 MOV_M_R
3206 MOV_M_R
18215 MOVZX_B_R_M
2909 AND_R_I
2253 CMP_R_I
16724 JNZ_I
8353 CALL_NEAR_I
2263 CMP_P_I
3257 MOV_R_P
3330 LEA_R_M
3199 MOV_P_R
3206 MOV_M_R
18244 MOVZX_W_R_M
8362 JMP_I
11700 HINT_NOP
3264 MOV_R_M
3206 MOV_M_R
8362 JMP_I
3264 MOV_R_M
3206 MOV_M_R
3206 MOV_M_R
8362 JMP_I
16715 JZ_I
3330 LEA_R_M
3264 MOV_R_M
4372 SAL_R_I
173 ADD_R_M
3264 MOV_R_M
3206 MOV_M_R
950 SUB_M_R
3013 CMP_M_I
16724 JNZ_I
839 AND_R_P
3264 MOV_R_M
3997 MOV_R_I
3264 MOV_R_M
3264 MOV_R_M
3264 MOV_R_M
8353 CALL_NEAR_I
8611 TEST_P_I
1916 JZ_I
3206 MOV_M_R
16715 JZ_I
3264 MOV_R_M
3330 LEA_R_M
1002 SUB_R_M
3033 TEST_R_R
3206 MOV_M_R
3206 MOV_M_R
16724 JNZ_I
3264 MOV_R_M
3330 LEA_R_M
8353 CALL_NEAR_I
3997 MOV_R_I
src/sim/syscall_emul.cc:74: warn: ignoring syscall mprotect(...)
8362 JMP_I
2096 OR_M_I
3264 MOV_R_M
3264 MOV_R_M
3264 MOV_R_M
173 ADD_R_M
3206 MOV_M_R
3013 CMP_M_I
16715 JZ_I
3264 MOV_R_M
3264 MOV_R_M
1245 CMP_R_R
1934 JBE_I
2793 ADD_R_I
3330 LEA_R_M
173 ADD_R_M
1907 JNB_I
1245 CMP_R_R
16733 JBE_I
3264 MOV_R_M
3997 MOV_R_I
8353 CALL_NEAR_I
16724 JNZ_I
3264 MOV_R_M
3257 MOV_R_P
104 ADD_R_R
104 ADD_R_R
3330 LEA_R_M
777 AND_R_R
1245 CMP_R_R
12965 CMOVNBE_R_R
1245 CMP_R_R
1907 JNB_I
933 SUB_R_R
3206 MOV_M_R
3206 MOV_M_R
8353 CALL_NEAR_I
3832 STOS_E_M
3264 MOV_R_M
3264 MOV_R_M
16715 JZ_I
1245 CMP_R_R
16742 JNBE_I
933 SUB_R_R
3997 MOV_R_I
8353 CALL_NEAR_I
16724 JNZ_I
18244 MOVZX_W_R_M
3264 MOV_R_M
3264 MOV_R_M
16715 JZ_I
3264 MOV_R_M
104 ADD_R_R
16715 JZ_I
1916 JZ_I
3997 MOV_R_I
3997 MOV_R_I
3997 MOV_R_I
3997 MOV_R_I
3997 MOV_R_I
3997 MOV_R_I
8427 JMP_I
3206 MOV_M_R
3189 MOV_R_R
16733 JBE_I
1943 JNBE_I
3189 MOV_R_R
16742 JNBE_I
3997 MOV_R_I
3330 LEA_R_M
3206 MOV_M_R
8362 JMP_I
1916 JZ_I
121 ADD_M_R
3264 MOV_R_M
3264 MOV_R_M
3264 MOV_R_M
3264 MOV_R_M
3264 MOV_R_M
3264 MOV_R_M
3264 MOV_R_M
3264 MOV_R_M
3264 MOV_R_M
3206 MOV_M_R
3812 TEST_R_I
3812 TEST_R_I
3206 MOV_M_R
16715 JZ_I
8611 TEST_P_I
3206 MOV_M_R
3189 MOV_R_R
16724 JNZ_I
2909 AND_R_I
3206 MOV_M_R
2909 AND_R_I
16724 JNZ_I
3264 MOV_R_M
16715 JZ_I
3257 MOV_R_P
846 AND_R_M
3812 TEST_R_I
16724 JNZ_I
3264 MOV_R_M
3206 MOV_M_R
3264 MOV_R_M
8353 CALL_NEAR_I
16724 JNZ_I
18215 MOVZX_B_R_M
16715 JZ_I
2996 CMP_R_I
16724 JNZ_I
3264 MOV_R_M
3189 MOV_R_R
173 ADD_R_M
8611 TEST_P_I
16724 JNZ_I
8353 CALL_NEAR_I
8618 TEST_M_I
1925 JNZ_I
3013 CMP_M_I
16724 JNZ_I
8618 TEST_M_I
1916 JZ_I
3264 MOV_R_M
3013 CMP_M_I
3206 MOV_M_R
3206 MOV_M_R
16724 JNZ_I
3006 CMP_P_I
16724 JNZ_I
8353 CALL_NEAR_I
3257 MOV_R_P
16715 JZ_I
8362 JMP_I
2293 ADD_R_I
3206 MOV_M_R
3264 MOV_R_M
4669 MOV_M_I
3264 MOV_R_M
3264 MOV_R_M
4626 MOV_M_I
2293 ADD_R_I
3264 MOV_R_M
16724 JNZ_I
3264 MOV_R_M
8618 TEST_M_I
16715 JZ_I
8427 JMP_I
2938 SUB_R_I
2839 OR_M_I
3264 MOV_R_M
3330 LEA_R_M
2909 AND_R_I
4669 MOV_M_I
3206 MOV_M_R
18215 MOVZX_B_R_M
3206 MOV_M_R
2909 AND_R_I
2822 OR_R_I
3177 MOV_M_R
3264 MOV_R_M
2793 ADD_R_I
3206 MOV_M_R
8362 JMP_I
2793 ADD_R_I
16724 JNZ_I
2909 AND_R_I
1328 CMP_R_I
16724 JNZ_I
1916 JZ_I
1925 JNZ_I
3264 MOV_R_M
3264 MOV_R_M
3062 TEST_R_R
16715 JZ_I
3206 MOV_M_R
8362 JMP_I
8362 JMP_I
18244 MOVZX_W_R_M
3062 TEST_R_R
16715 JZ_I
4372 SAL_R_I
1314 CMP_R_M
3264 MOV_R_M
16733 JBE_I
2793 ADD_R_I
3330 LEA_R_M
2409 AND_R_I
16715 JZ_I
3330 LEA_R_M
2909 AND_R_I
3330 LEA_R_M
1262 CMP_M_R
3206 MOV_M_R
3206 MOV_M_R
8362 JMP_I
16706 JNB_I
16724 JNZ_I
1907 JNB_I
1925 JNZ_I
1907 JNB_I
1925 JNZ_I
1907 JNB_I
1925 JNZ_I
3189 MOV_R_R
2793 ADD_R_I
3206 MOV_M_R
3330 LEA_R_M
3189 MOV_R_R
4669 MOV_M_I
3330 LEA_R_M
4372 SAL_R_I
8353 CALL_NEAR_I
16715 JZ_I
3264 MOV_R_M
4372 SAL_R_I
3330 LEA_R_M
3189 MOV_R_R
3206 MOV_M_R
8353 CALL_NEAR_I
3330 LEA_R_M
3330 LEA_R_M
8353 CALL_NEAR_I
2096 OR_M_I
3206 MOV_M_R
3013 CMP_M_I
16724 JNZ_I
3013 CMP_M_I
16724 JNZ_I
8362 JMP_I
3257 MOV_R_P
1925 JNZ_I
3264 MOV_R_M
3264 MOV_R_M
3199 MOV_P_R
3264 MOV_R_M
1916 JZ_I
3264 MOV_R_M
3206 MOV_M_R
3330 LEA_R_M
8353 CALL_NEAR_I
3264 MOV_R_M
16715 JZ_I
3264 MOV_R_M
3264 MOV_R_M
3189 MOV_R_R
2793 ADD_R_I
3330 LEA_R_M
3206 MOV_M_R
3206 MOV_M_R
3264 MOV_R_M
16724 JNZ_I
8427 JMP_I
3264 MOV_R_M
3330 LEA_R_M
3206 MOV_M_R
3264 MOV_R_M
3264 MOV_R_M
2183 AND_M_I
1925 JNZ_I
3206 MOV_M_R
8611 TEST_P_I
16724 JNZ_I
3264 MOV_R_M
3264 MOV_R_M
16715 JZ_I
3264 MOV_R_M
3206 MOV_M_R
3264 MOV_R_M
3189 MOV_R_R
3330 LEA_R_M
3264 MOV_R_M
8353 CALL_NEAR_I
2996 CMP_R_I
3264 MOV_R_M
16733 JBE_I
8362 JMP_I
3330 LEA_R_M
3206 MOV_M_R
3330 LEA_R_M
2409 AND_R_I
933 SUB_R_R
1245 CMP_R_R
3330 LEA_R_M
2839 OR_M_I
3206 MOV_M_R
3206 MOV_M_R
3997 MOV_R_I
8353 CALL_NEAR_I
3264 MOV_R_M
3264 MOV_R_M
3997 MOV_R_I
4669 MOV_M_I
2938 SUB_R_I
3206 MOV_M_R
3206 MOV_M_R
3264 MOV_R_M
3330 LEA_R_M
3330 LEA_R_M
2810 ADD_M_I
1245 CMP_R_R
3264 MOV_R_M
1907 JNB_I
3189 MOV_R_R
3330 LEA_R_M
3264 MOV_R_M
3264 MOV_R_M
8427 JMP_I
2938 SUB_R_I
1898 JB_I
1262 CMP_M_R
3189 MOV_R_R
16715 JZ_I
3264 MOV_R_M
3189 MOV_R_R
3206 MOV_M_R
933 SUB_R_R
3330 LEA_R_M
104 ADD_R_R
8353 CALL_NEAR_I
3264 MOV_R_M
3264 MOV_R_M
2793 ADD_R_I
8362 JMP_I
3264 MOV_R_M
3264 MOV_R_M
8362 JMP_I
3264 MOV_R_M
4669 MOV_M_I
2096 OR_M_I
3206 MOV_M_R
3264 MOV_R_M
933 SUB_R_R
114 ADD_P_R
1916 JZ_I
3264 MOV_R_M
3264 MOV_R_M
2096 OR_M_I
1925 JNZ_I
3257 MOV_R_P
3257 MOV_R_P
3257 MOV_R_P
3206 MOV_M_R
1934 JBE_I
3323 LEA_R_P
1262 CMP_M_R
16715 JZ_I
3330 LEA_R_M
1245 CMP_R_R
2793 ADD_R_I
1262 CMP_M_R
16715 JZ_I
3330 LEA_R_M
4372 SAL_R_I
3013 CMP_M_I
3264 MOV_R_M
3199 MOV_P_R
16724 JNZ_I
1934 JBE_I
3257 MOV_R_P
3199 MOV_P_R
1314 CMP_R_M
16715 JZ_I
3323 LEA_R_P
3257 MOV_R_P
16715 JZ_I
4626 MOV_M_I
8362 JMP_I
3264 MOV_R_M
3323 LEA_R_P
3062 TEST_R_R
3323 LEA_R_P
3206 MOV_M_R
3206 MOV_M_R
8353 CALL_NEAR_I
3189 MOV_R_R
9338 CALL_NEAR_P
3257 MOV_R_P
3264 MOV_R_M
3199 MOV_P_R
9328 CALL_NEAR_R
3264 MOV_R_M
3257 MOV_R_P
8353 CALL_NEAR_I
1916 JZ_I
8427 JMP_I
8618 TEST_M_I
1925 JNZ_I
3189 MOV_R_R
8353 CALL_NEAR_I
3264 MOV_R_M
3206 MOV_M_R
3206 MOV_M_R
16715 JZ_I
3264 MOV_R_M
3206 MOV_M_R
3264 MOV_R_M
3206 MOV_M_R
16715 JZ_I
121 ADD_M_R
3013 CMP_M_I
16724 JNZ_I
3323 LEA_R_P
3264 MOV_R_M
3264 MOV_R_M
173 ADD_R_M
3264 MOV_R_M
3189 MOV_R_R
8353 CALL_NEAR_I
1916 JZ_I
3264 MOV_R_M
16715 JZ_I
3189 MOV_R_R
3264 MOV_R_M
16724 JNZ_I
3264 MOV_R_M
3189 MOV_R_R
3189 MOV_R_R
8427 JMP_I
18244 MOVZX_W_R_M
3264 MOV_R_M
3264 MOV_R_M
3264 MOV_R_M
173 ADD_R_M
3264 MOV_R_M
3264 MOV_R_M
2909 AND_R_I
2270 CMP_M_I
18227 MOVZX_W_R_R
1925 JNZ_I
3257 MOV_R_P
3264 MOV_R_M
8353 CALL_NEAR_I
3189 MOV_R_R
3189 MOV_R_R
2938 SUB_R_I
8611 TEST_P_I
3264 MOV_R_M
3206 MOV_M_R
3264 MOV_R_M
16724 JNZ_I
3264 MOV_R_M
16715 JZ_I
3264 MOV_R_M
173 ADD_R_M
3013 CMP_M_I
1925 JNZ_I
1262 CMP_M_R
16715 JZ_I
3264 MOV_R_M
16715 JZ_I
104 ADD_R_R
1916 JZ_I
3264 MOV_R_M
3264 MOV_R_M
104 ADD_R_R
8353 CALL_NEAR_I
16724 JNZ_I
263 OR_R_R
18244 MOVZX_W_R_M
860 AND_R_I
1245 CMP_R_R
12820 CMOVB_R_R
3264 MOV_R_M
1925 JNZ_I
3189 MOV_R_R
3189 MOV_R_R
1916 JZ_I
3189 MOV_R_R
2793 ADD_R_I
3997 MOV_R_I
8353 CALL_NEAR_I
3206 MOV_M_R
3264 MOV_R_M
3206 MOV_M_R
3206 MOV_M_R
1916 JZ_I
3264 MOV_R_M
173 ADD_R_M
3264 MOV_R_M
8427 JMP_I
18244 MOVZX_W_R_M
2409 AND_R_I
18227 MOVZX_W_R_R
1245 CMP_R_R
1934 JBE_I
18227 MOVZX_W_R_R
2409 AND_R_I
3264 MOV_R_M
3330 LEA_R_M
18227 MOVZX_W_R_R
3330 LEA_R_M
3206 MOV_M_R
3264 MOV_R_M
3206 MOV_M_R
104 ADD_R_R
3206 MOV_M_R
3264 MOV_R_M
3206 MOV_M_R
3264 MOV_R_M
1925 JNZ_I
3264 MOV_R_M
1916 JZ_I
3264 MOV_R_M
1916 JZ_I
3264 MOV_R_M
263 OR_R_R
1925 JNZ_I
8427 JMP_I
18244 MOVZX_W_R_M
2409 AND_R_I
1245 CMP_R_R
12820 CMOVB_R_R
3264 MOV_R_M
3264 MOV_R_M
173 ADD_R_M
8427 JMP_I
8618 TEST_M_I
3264 MOV_R_M
3264 MOV_R_M
1925 JNZ_I
18244 MOVZX_W_R_M
3264 MOV_R_M
3264 MOV_R_M
2409 AND_R_I
3206 MOV_M_R
3189 MOV_R_R
1916 JZ_I
3199 MOV_P_R
18208 MOVZX_B_R_P
3013 CMP_M_I
3177 MOV_M_R
1925 JNZ_I
8353 CALL_NEAR_I
3006 CMP_P_I
3257 MOV_R_P
3199 MOV_P_R
16724 JNZ_I
3330 LEA_R_M
2793 ADD_R_I
4372 SAL_R_I
8353 CALL_NEAR_I
3199 MOV_P_R
3330 LEA_R_M
3206 MOV_M_R
4669 MOV_M_I
3257 MOV_R_P
1916 JZ_I
3013 CMP_M_I
3264 MOV_R_M
8427 JMP_I
1498 MOVSXD_R_R
9270 INC_R
3206 MOV_M_R
8353 CALL_NEAR_I
3257 MOV_R_P
3264 MOV_R_M
3330 LEA_R_M
16715 JZ_I
3997 MOV_R_I
8427 JMP_I
3264 MOV_R_M
3264 MOV_R_M
3264 MOV_R_M
3330 LEA_R_M
3330 LEA_R_M
777 AND_R_R
1245 CMP_R_R
12820 CMOVB_R_R
933 SUB_R_R
933 SUB_R_R
1245 CMP_R_R
1907 JNB_I
3330 LEA_R_M
9018 DIV_R
17960 IMUL_R_R
104 ADD_R_R
3330 LEA_R_M
1245 CMP_R_R
1934 JBE_I
2793 ADD_R_I
3206 MOV_M_R
3264 MOV_R_M
1925 JNZ_I
3330 LEA_R_M
3199 MOV_P_R
9018 DIV_R
3199 MOV_P_R
17960 IMUL_R_R
187 ADD_R_I
3199 MOV_P_R
8353 CALL_NEAR_I
3257 MOV_R_P
3257 MOV_R_P
8353 CALL_NEAR_I
16715 JZ_I
3330 LEA_R_M
3997 MOV_R_I
8601 TEST_R_I
16724 JNZ_I
8601 TEST_R_I
16724 JNZ_I
8601 TEST_R_I
16724 JNZ_I
3189 MOV_R_R
4401 SHR_R_I
3856 STOS_E_M
1925 JNZ_I
1925 JNZ_I
2909 AND_R_I
3257 MOV_R_P
3330 LEA_R_M
2793 ADD_R_I
8353 CALL_NEAR_I
16715 JZ_I
3330 LEA_R_M
3206 MOV_M_R
3206 MOV_M_R
1925 JNZ_I
3997 MOV_R_I
3199 MOV_P_R
3206 MOV_M_R
3997 MOV_R_I
3206 MOV_M_R
4619 MOV_P_I
3206 MOV_M_R
2270 CMP_M_I
3257 MOV_R_P
1063 XOR_R_R
3206 MOV_M_R
3206 MOV_M_R
4662 MOV_P_I
3199 MOV_P_R
16724 JNZ_I
3264 MOV_R_M
16715 JZ_I
3257 MOV_R_P
8362 JMP_I
3330 LEA_R_M
3264 MOV_R_M
2166 AND_R_I
3199 MOV_P_R
3264 MOV_R_M
3199 MOV_P_R
3199 MOV_P_R
3257 MOV_R_P
3199 MOV_P_R
16724 JNZ_I
3033 TEST_R_R
16715 JZ_I
3006 CMP_P_I
16991 SETNZ_R
273 OR_P_R
3177 MOV_M_R
4372 SAL_R_I
263 OR_R_R
3264 MOV_R_M
3330 LEA_R_M
3189 MOV_R_R
3189 MOV_R_R
8427 JMP_I
2996 CMP_R_I
1925 JNZ_I
3264 MOV_R_M
3189 MOV_R_R
3264 MOV_R_M
3264 MOV_R_M
16724 JNZ_I
4669 MOV_M_I
16715 JZ_I
3323 LEA_R_P
2183 AND_M_I
3013 CMP_M_I
1916 JZ_I
3257 MOV_R_P
3189 MOV_R_R
3264 MOV_R_M
16991 SETNZ_R
8353 CALL_NEAR_I
3189 MOV_R_R
3189 MOV_R_R
2438 SUB_R_I
8844 TEST_R_I
3206 MOV_M_R
3206 MOV_M_R
3006 CMP_P_I
16991 SETNZ_R
280 OR_M_R
8618 TEST_M_I
16724 JNZ_I
3264 MOV_R_M
16715 JZ_I
3013 CMP_M_I
16715 JZ_I
8611 TEST_P_I
16715 JZ_I
3013 CMP_M_I
16724 JNZ_I
4669 MOV_M_I
3264 MOV_R_M
3013 CMP_M_I
3206 MOV_M_R
16715 JZ_I
3062 TEST_R_R
16724 JNZ_I
3330 LEA_R_M
3264 MOV_R_M
16715 JZ_I
3264 MOV_R_M
3264 MOV_R_M
3206 MOV_M_R
3264 MOV_R_M
12936 CMOVBE_R_R
3206 MOV_M_R
104 ADD_R_R
3013 CMP_M_I
3264 MOV_R_M
3264 MOV_R_M
3264 MOV_R_M
3330 LEA_R_M
1245 CMP_R_R
16715 JZ_I
16715 JZ_I
16715 JZ_I
8362 JMP_I
3330 LEA_R_M
2409 AND_R_I
3206 MOV_M_R
3206 MOV_M_R
3330 LEA_R_M
3330 LEA_R_M
3206 MOV_M_R
3330 LEA_R_M
3206 MOV_M_R
3330 LEA_R_M
3206 MOV_M_R
3330 LEA_R_M
3206 MOV_M_R
3264 MOV_R_M
3264 MOV_R_M
3264 MOV_R_M
3189 MOV_R_R
173 ADD_R_M
16715 JZ_I
3264 MOV_R_M
3330 LEA_R_M
3323 LEA_R_P
3264 MOV_R_M
3206 MOV_M_R
16715 JZ_I
1245 CMP_R_R
1907 JNB_I
173 ADD_R_M
2793 ADD_R_I
1245 CMP_R_R
3206 MOV_M_R
1943 JNBE_I
3264 MOV_R_M
16715 JZ_I
1245 CMP_R_R
3206 MOV_M_R
16733 JBE_I
1089 XOR_R_R
3206 MOV_M_R
3206 MOV_M_R
3206 MOV_M_R
3189 MOV_R_R
3264 MOV_R_M
3189 MOV_R_R
2996 CMP_R_I
16715 JZ_I
3264 MOV_R_M
3264 MOV_R_M
173 ADD_R_M
2996 CMP_R_I
3264 MOV_R_M
18244 MOVZX_W_R_M
3264 MOV_R_M
3206 MOV_M_R
16715 JZ_I
2996 CMP_R_I
16715 JZ_I
16715 JZ_I
18215 MOVZX_B_R_M
4158 SHR_R_I
16715 JZ_I
1314 CMP_R_M
16715 JZ_I
2996 CMP_R_I
16715 JZ_I
3330 LEA_R_M
16733 JBE_I
2996 CMP_R_I
16962 SETZ_R
2996 CMP_R_I
16962 SETZ_R
3206 MOV_M_R
104 ADD_R_R
263 OR_R_R
3330 LEA_R_M
3206 MOV_M_R
3264 MOV_R_M
3062 TEST_R_R
12878 CMOVZ_R_R
3264 MOV_R_M
173 ADD_R_M
3264 MOV_R_M
4669 MOV_M_I
4669 MOV_M_I
8353 CALL_NEAR_I
3189 MOV_R_R
3189 MOV_R_R
3189 MOV_R_R
2438 SUB_R_I
3206 MOV_M_R
3206 MOV_M_R
16715 JZ_I
3997 MOV_R_I
3189 MOV_R_R
2793 ADD_R_I
4372 SAL_R_I
104 ADD_R_R
104 ADD_R_R
18215 MOVZX_B_R_M
3189 MOV_R_R
2803 ADD_P_I
3013 CMP_M_I
4669 MOV_M_I
4669 MOV_M_I
3264 MOV_R_M
16724 JNZ_I
16715 JZ_I
3189 MOV_R_R
3330 LEA_R_M
3264 MOV_R_M
3264 MOV_R_M
3264 MOV_R_M
3264 MOV_R_M
3264 MOV_R_M
3206 MOV_M_R
3206 MOV_M_R
4669 MOV_M_I
3206 MOV_M_R
3206 MOV_M_R
4669 MOV_M_I
8353 CALL_NEAR_I
3189 MOV_R_R
3264 MOV_R_M
3264 MOV_R_M
3206 MOV_M_R
3264 MOV_R_M
3264 MOV_R_M
3206 MOV_M_R
3206 MOV_M_R
3264 MOV_R_M
3206 MOV_M_R
3264 MOV_R_M
3206 MOV_M_R
3264 MOV_R_M
3189 MOV_R_R
2909 AND_R_I
4401 SHR_R_I
3264 MOV_R_M
4669 MOV_M_I
4669 MOV_M_I
3264 MOV_R_M
1245 CMP_R_R
3206 MOV_M_R
16715 JZ_I
8618 TEST_M_I
8618 TEST_M_I
8611 TEST_P_I
16724 JNZ_I
3264 MOV_R_M
16715 JZ_I
3264 MOV_R_M
3206 MOV_M_R
3264 MOV_R_M
16715 JZ_I
3189 MOV_R_R
846 AND_R_M
3264 MOV_R_M
3264 MOV_R_M
5812 SHR_R_R
3189 MOV_R_R
5812 SHR_R_R
777 AND_R_R
16724 JNZ_I
4669 MOV_M_I
3013 CMP_M_I
3264 MOV_R_M
1916 JZ_I
3264 MOV_R_M
2793 ADD_R_I
1245 CMP_R_R
16742 JNBE_I
3264 MOV_R_M
3264 MOV_R_M
16715 JZ_I
3264 MOV_R_M
3330 LEA_R_M
3264 MOV_R_M
1089 XOR_R_R
5326 SHR_1_R
2793 ADD_R_I
16724 JNZ_I
3264 MOV_R_M
3264 MOV_R_M
3206 MOV_M_R
3206 MOV_M_R
3206 MOV_M_R
3206 MOV_M_R
1002 SUB_R_M
4459 SAR_R_I
3206 MOV_M_R
8353 CALL_NEAR_I
3189 MOV_R_R
18215 MOVZX_B_R_M
2909 AND_R_I
3013 CMP_M_I
16715 JZ_I
3013 CMP_M_I
16962 SETZ_R
3079 TEST_M_R
16724 JNZ_I
3997 MOV_R_I
17367 BT_R_R
16706 JNB_I
1314 CMP_R_M
1916 JZ_I
3264 MOV_R_M
3264 MOV_R_M
3264 MOV_R_M
18244 MOVZX_W_R_M
3330 LEA_R_M
3264 MOV_R_M
3330 LEA_R_M
3264 MOV_R_M
1314 CMP_R_M
1916 JZ_I
3264 MOV_R_M
3264 MOV_R_M
8353 CALL_NEAR_I
1916 JZ_I
3264 MOV_R_M
3264 MOV_R_M
3264 MOV_R_M
16724 JNZ_I
18215 MOVZX_B_R_M
4158 SHR_R_I
2253 CMP_R_I
1916 JZ_I
1916 JZ_I
3206 MOV_M_R
3264 MOV_R_M
3206 MOV_M_R
2996 CMP_R_I
2026 JNLE_I
4669 MOV_M_I
3013 CMP_M_I
16715 JZ_I
18215 MOVZX_B_R_M
1322 CMP_R_I
1916 JZ_I
3264 MOV_R_M
18215 MOVZX_B_R_M
3189 MOV_R_R
16715 JZ_I
3264 MOV_R_M
16715 JZ_I
3257 MOV_R_P
8844 TEST_R_I
16724 JNZ_I
3206 MOV_M_R
3189 MOV_R_R
3206 MOV_M_R
3206 MOV_M_R
1916 JZ_I
18215 MOVZX_B_R_M
3264 MOV_R_M
173 ADD_R_M
16715 JZ_I
16742 JNBE_I
3323 LEA_R_P
3323 LEA_R_P
1515 MOVSXD_R_M
173 ADD_R_M
3206 MOV_M_R
2793 ADD_R_I
1262 CMP_M_R
16742 JNBE_I
3189 MOV_R_R
8362 JMP_I
16715 JZ_I
3264 MOV_R_M
3330 LEA_R_M
16733 JBE_I
3264 MOV_R_M
173 ADD_R_M
3206 MOV_M_R
8362 JMP_I
16715 JZ_I
3264 MOV_R_M
8362 JMP_I
3257 MOV_R_P
16724 JNZ_I
3264 MOV_R_M
3206 MOV_M_R
3206 MOV_M_R
3206 MOV_M_R
8353 CALL_NEAR_I
3264 MOV_R_M
3264 MOV_R_M
3264 MOV_R_M
16724 JNZ_I
3264 MOV_R_M
173 ADD_R_M
8353 CALL_NEAR_I
16724 JNZ_I
4669 MOV_M_I
8362 JMP_I
1916 JZ_I
1934 JBE_I
104 ADD_R_R
1314 CMP_R_M
16724 JNZ_I
3264 MOV_R_M
2803 ADD_P_I
3264 MOV_R_M
3206 MOV_M_R
8362 JMP_I
8362 JMP_I
3013 CMP_M_I
16715 JZ_I
3206 MOV_M_R
3206 MOV_M_R
8362 JMP_I
8362 JMP_I
3264 MOV_R_M
3189 MOV_R_R
3264 MOV_R_M
3062 TEST_R_R
16715 JZ_I
3264 MOV_R_M
1245 CMP_R_R
16697 JB_I
2996 CMP_R_I
3189 MOV_R_R
173 ADD_R_M
3264 MOV_R_M
18244 MOVZX_W_R_M
3330 LEA_R_M
18215 MOVZX_B_R_M
16715 JZ_I
8362 JMP_I
1322 CMP_R_I
16715 JZ_I
3264 MOV_R_M
173 ADD_R_M
3323 LEA_R_P
3323 LEA_R_P
3257 MOV_R_P
3323 LEA_R_P
8861 TEST_M_I
1925 JNZ_I
3323 LEA_R_P
8861 TEST_M_I
3323 LEA_R_P
8861 TEST_M_I
3323 LEA_R_P
8362 JMP_I
2793 ADD_R_I
1245 CMP_R_R
16742 JNBE_I
3323 LEA_R_P
3323 LEA_R_P
4669 MOV_M_I
4669 MOV_M_I
4669 MOV_M_I
8353 CALL_NEAR_I
3257 MOV_R_P
3189 MOV_R_R
3264 MOV_R_M
2938 SUB_R_I
3330 LEA_R_M
3330 LEA_R_M
4669 MOV_M_I
4669 MOV_M_I
4626 MOV_M_I
9345 CALL_NEAR_M
8427 JMP_I
16724 JNZ_I
2793 ADD_R_I
3264 MOV_R_M
1925 JNZ_I
18215 MOVZX_B_R_M
8362 JMP_I
2793 ADD_R_I
4652 MOV_R_I
12907 CMOVNZ_R_R
3257 MOV_R_P
3323 LEA_R_P
8861 TEST_M_I
3323 LEA_R_P
3323 LEA_R_P
3257 MOV_R_P
3323 LEA_R_P
3323 LEA_R_P
3323 LEA_R_P
3257 MOV_R_P
3323 LEA_R_P
8861 TEST_M_I
3323 LEA_R_P
3323 LEA_R_P
8353 CALL_NEAR_I
4652 MOV_R_I
3257 MOV_R_P
3323 LEA_R_P
3264 MOV_R_M
3189 MOV_R_R
2409 AND_R_I
2496 CMP_R_I
1916 JZ_I
8618 TEST_M_I
3323 LEA_R_P
2810 ADD_M_I
3264 MOV_R_M
16724 JNZ_I
3264 MOV_R_M
16724 JNZ_I
2096 OR_M_I
3013 CMP_M_I
16724 JNZ_I
3264 MOV_R_M
16724 JNZ_I
3264 MOV_R_M
3257 MOV_R_P
3330 LEA_R_M
8931 NEG_R
3189 MOV_R_R
777 AND_R_R
777 AND_R_R
1245 CMP_R_R
16715 JZ_I
933 SUB_R_R
8353 CALL_NEAR_I
src/sim/syscall_emul.cc:74: warn: ignoring syscall mprotect(...)
16771 JNS_I
2263 CMP_P_I
16724 JNZ_I
8353 CALL_NEAR_I
3264 MOV_R_M
3257 MOV_R_P
8427 JMP_I
1245 CMP_R_R
1907 JNB_I
4372 SAL_R_I
104 ADD_R_R
3206 MOV_M_R
3257 MOV_R_P
3206 MOV_M_R
8362 JMP_I
2909 AND_R_I
8611 TEST_P_I
16724 JNZ_I
3264 MOV_R_M
16724 JNZ_I
3264 MOV_R_M
3206 MOV_M_R
16724 JNZ_I
3006 CMP_P_I
16724 JNZ_I
3323 LEA_R_P
3206 MOV_M_R
3264 MOV_R_M
16724 JNZ_I
8362 JMP_I
3206 MOV_M_R
3206 MOV_M_R
3013 CMP_M_I
16724 JNZ_I
8362 JMP_I
1245 CMP_R_R
1898 JB_I
2996 CMP_R_I
1925 JNZ_I
173 ADD_R_M
2996 CMP_R_I
16724 JNZ_I
3264 MOV_R_M
16724 JNZ_I
121 ADD_M_R
1245 CMP_R_R
1916 JZ_I
src/sim/syscall_emul.cc:74: warn: ignoring syscall mprotect(...)
18215 MOVZX_B_R_M
933 SUB_R_R
3006 CMP_P_I
3199 MOV_P_R
16715 JZ_I
2270 CMP_M_I
16724 JNZ_I
3006 CMP_P_I
2803 ADD_P_I
3264 MOV_R_M
8353 CALL_NEAR_I
2938 SUB_R_I
16715 JZ_I
3264 MOV_R_M
3257 MOV_R_P
3264 MOV_R_M
16697 JB_I
3257 MOV_R_P
3264 MOV_R_M
16962 SETZ_R
16706 JNB_I
3330 LEA_R_M
16742 JNBE_I
3330 LEA_R_M
4372 SAL_R_I
3330 LEA_R_M
3264 MOV_R_M
3264 MOV_R_M
3264 MOV_R_M
1245 CMP_R_R
12820 CMOVB_R_R
173 ADD_R_M
4669 MOV_M_I
4626 MOV_M_I
3264 MOV_R_M
2996 CMP_R_I
1934 JBE_I
3264 MOV_R_M
3264 MOV_R_M
3264 MOV_R_M
3264 MOV_R_M
933 SUB_R_R
8353 CALL_NEAR_I
3189 MOV_R_R
8353 CALL_NEAR_I
3257 MOV_R_P
16697 JB_I
3330 LEA_R_M
2793 ADD_R_I
16742 JNBE_I
3206 MOV_M_R
2793 ADD_R_I
2263 CMP_P_I
16715 JZ_I
2270 CMP_M_I
16715 JZ_I
3264 MOV_R_M
3323 LEA_R_P
4372 SAL_R_I
263 OR_R_R
2176 AND_P_I
8353 CALL_NEAR_I
src/sim/syscall_emul.cc:74: warn: ignoring syscall mprotect(...)
933 SUB_R_R
114 ADD_P_R
8362 JMP_I
8353 CALL_NEAR_I
3257 MOV_R_P
16724 JNZ_I
8353 CALL_NEAR_I
8353 CALL_NEAR_I
8353 CALL_NEAR_I
3257 MOV_R_P
3330 LEA_R_M
2996 CMP_R_I
3257 MOV_R_P
8353 CALL_NEAR_I
3997 MOV_R_I
4662 MOV_P_I
995 SUB_R_P
8611 TEST_P_I
3206 MOV_M_R
16724 JNZ_I
2793 ADD_R_I
3257 MOV_R_P
1396 POP_R
3330 LEA_R_M
1387 PUSH_R
3189 MOV_R_R
2909 AND_R_I
3257 MOV_R_P
3330 LEA_R_M
3330 LEA_R_M
8353 CALL_NEAR_I
3189 MOV_R_R
3257 MOV_R_P
3264 MOV_R_M
3264 MOV_R_M
16724 JNZ_I
16724 JNZ_I
3264 MOV_R_M
3330 LEA_R_M
3206 MOV_M_R
2996 CMP_R_I
16715 JZ_I
3189 MOV_R_R
3264 MOV_R_M
18215 MOVZX_B_R_M
16724 JNZ_I
3264 MOV_R_M
2822 OR_R_I
3177 MOV_M_R
18215 MOVZX_B_R_M
16715 JZ_I
3264 MOV_R_M
16715 JZ_I
3013 CMP_M_I
16724 JNZ_I
2938 SUB_R_I
8427 JMP_I
16724 JNZ_I
8611 TEST_P_I
16724 JNZ_I
173 ADD_R_M
3189 MOV_R_R
3189 MOV_R_R
3257 MOV_R_P
16715 JZ_I
3264 MOV_R_M
16724 JNZ_I
3257 MOV_R_P
4662 MOV_P_I
18244 MOVZX_W_R_M
3257 MOV_R_P
1262 CMP_M_R
16715 JZ_I
3257 MOV_R_P
3323 LEA_R_P
3199 MOV_P_R
3199 MOV_P_R
3323 LEA_R_P
8353 CALL_NEAR_I
3323 LEA_R_P
8362 JMP_I
3323 LEA_R_P
1158 XOR_R_M
3199 MOV_P_R
8353 CALL_NEAR_I
4652 MOV_R_I
12907 CMOVNZ_R_R
1158 XOR_R_M
4256 ROL_R_I
3199 MOV_P_R
8353 CALL_NEAR_I
1916 JZ_I
3264 MOV_R_M
8353 CALL_NEAR_I
15619 MOVD_XMM_R
14957 PUNPCKLBW_XMM_XMM
2909 AND_R_I
21080 PXOR_XMM_XMM
2822 OR_R_I
15665 MOVDQA_XMM_M
15995 PSHUFD_XMM_XMM_I
933 SUB_R_R
15648 MOVDQA_XMM_XMM
16153 PCMPEQB_XMM_XMM
16153 PCMPEQB_XMM_XMM
5783 SAL_R_R
19516 PMOVMSKB_R_XMM
19516 PMOVMSKB_R_XMM
777 AND_R_R
777 AND_R_R
3189 MOV_R_R
263 OR_R_R
1916 JZ_I
18475 BSF_R_R
3997 MOV_R_I
18504 BSR_R_R
1916 JZ_I
3330 LEA_R_M
8427 JMP_I
933 SUB_R_R
5812 SHR_R_R
777 AND_R_R
3257 MOV_R_P
12878 CMOVZ_R_R
3257 MOV_R_P
3264 MOV_R_M
8353 CALL_NEAR_I
3257 MOV_R_P
3257 MOV_R_P
3264 MOV_R_M
3264 MOV_R_M
3264 MOV_R_M
3330 LEA_R_M
3206 MOV_M_R
3257 MOV_R_P
3330 LEA_R_M
3264 MOV_R_M
3257 MOV_R_P
2293 ADD_R_I
3206 MOV_M_R
3264 MOV_R_M
3264 MOV_R_M
4401 SHR_R_I
2938 SUB_R_I
3330 LEA_R_M
9345 CALL_NEAR_M
3257 MOV_R_P
3323 LEA_R_P
1262 CMP_M_R
3257 MOV_R_P
3257 MOV_R_P
2793 ADD_R_I
1245 CMP_R_R
3257 MOV_R_P
3264 MOV_R_M
2996 CMP_R_I
16715 JZ_I
2996 CMP_R_I
1916 JZ_I
3812 TEST_R_I
16724 JNZ_I
8362 JMP_I
4662 MOV_P_I
3323 LEA_R_P
3189 MOV_R_R
9394 JMP_R
3189 MOV_R_R
1396 POP_R
1387 PUSH_R
1387 PUSH_R
4652 MOV_R_I
4652 MOV_R_I
4652 MOV_R_I
8353 CALL_NEAR_I
9404 JMP_P
1581 PUSH_I
8362 JMP_I
9574 PUSH_P
9404 JMP_P
3189 MOV_R_R
2438 SUB_R_I
3206 MOV_M_R
3206 MOV_M_R
3206 MOV_M_R
3206 MOV_M_R
17645 FXSAVE_M
3264 MOV_R_M
3264 MOV_R_M
8353 CALL_NEAR_I
3189 MOV_R_R
3330 LEA_R_M
2938 SUB_R_I
3264 MOV_R_M
3264 MOV_R_M
3264 MOV_R_M
3330 LEA_R_M
3264 MOV_R_M
3330 LEA_R_M
3330 LEA_R_M
3264 MOV_R_M
3189 MOV_R_R
173 ADD_R_M
8618 TEST_M_I
16724 JNZ_I
3264 MOV_R_M
16715 JZ_I
3264 MOV_R_M
18244 MOVZX_W_R_M
3330 LEA_R_M
3264 MOV_R_M
3330 LEA_R_M
3997 MOV_R_I
3264 MOV_R_M
12878 CMOVZ_R_R
3264 MOV_R_M
16724 JNZ_I
3997 MOV_R_I
3264 MOV_R_M
3264 MOV_R_M
3206 MOV_M_R
104 ADD_R_R
8353 CALL_NEAR_I
3264 MOV_R_M
1925 JNZ_I
3264 MOV_R_M
3264 MOV_R_M
18215 MOVZX_B_R_M
173 ADD_R_M
3257 MOV_R_P
1925 JNZ_I
2793 ADD_R_I
17708 FXRSTOR_M
3264 MOV_R_M
3264 MOV_R_M
3264 MOV_R_M
3264 MOV_R_M
3264 MOV_R_M
3189 MOV_R_R
9394 JMP_R
3189 MOV_R_R
2438 SUB_R_I
3257 MOV_R_P
3206 MOV_M_R
3206 MOV_M_R
3206 MOV_M_R
3323 LEA_R_P
3206 MOV_M_R
3189 MOV_R_R
8353 CALL_NEAR_I
3323 LEA_R_P
8353 CALL_NEAR_I
3006 CMP_P_I
18039 CMPXCHG_P_R
16724 JNZ_I
3264 MOV_R_M
16715 JZ_I
3189 MOV_R_R
1916 JZ_I
4669 MOV_M_I
1916 JZ_I
3330 LEA_R_M
4669 MOV_M_I
8427 JMP_I
4669 MOV_M_I
2803 ADD_P_I
3006 CMP_P_I
1916 JZ_I
9309 DEC_P
16724 JNZ_I
3206 MOV_M_R
3206 MOV_M_R
1158 XOR_R_M
4256 ROL_R_I
3206 MOV_M_R
4669 MOV_M_I
3257 MOV_R_P
3264 MOV_R_M
1498 MOVSXD_R_R
16724 JNZ_I
3257 MOV_R_P
3264 MOV_R_M
3264 MOV_R_M
9328 CALL_NEAR_R
3189 MOV_R_R
3323 LEA_R_P
3323 LEA_R_P
933 SUB_R_R
4459 SAR_R_I
8353 CALL_NEAR_I
3257 MOV_R_P
3189 MOV_R_R
3189 MOV_R_R
9345 CALL_NEAR_M
8427 JMP_I
3997 MOV_R_I
2438 SUB_R_I
4401 SHR_R_I
4459 SAR_R_I
104 ADD_R_R
5384 SAR_1_R
1245 CMP_R_R
3257 MOV_R_P
3264 MOV_R_M
3062 TEST_R_R
16724 JNZ_I
16724 JNZ_I
3330 LEA_R_M
8353 CALL_NEAR_I
8362 JMP_I
1158 XOR_R_M
8362 JMP_I
3206 MOV_M_R
1925 JNZ_I
3264 MOV_R_M
3206 MOV_M_R
3264 MOV_R_M
3206 MOV_M_R
3330 LEA_R_M
3206 MOV_M_R
3257 MOV_R_P
2938 SUB_R_I
3206 MOV_M_R
3206 MOV_M_R
8353 CALL_NEAR_I
3997 MOV_R_I
3997 MOV_R_I
3997 MOV_R_I
8353 CALL_NEAR_I
3206 MOV_M_R
3206 MOV_M_R
3206 MOV_M_R
4669 MOV_M_I
4669 MOV_M_I
8427 JMP_I
3264 MOV_R_M
1314 CMP_R_M
16798 JL_I
3330 LEA_R_M
3264 MOV_R_M
1328 CMP_R_I
3264 MOV_R_M
3330 LEA_R_M
104 ADD_R_R
3206 MOV_M_R
3264 MOV_R_M
1262 CMP_M_R
13196 CMOVLE_R_M
3206 MOV_M_R
2810 ADD_M_I
3206 MOV_M_R
4711 LEAVE
3997 MOV_R_I
3189 MOV_R_R
8353 CALL_NEAR_I
1396 POP_R
3323 LEA_R_P
8353 CALL_NEAR_I
3189 MOV_R_R
3264 MOV_R_M
1916 JZ_I
4372 SAL_R_I
3330 LEA_R_M
3206 MOV_M_R
3264 MOV_R_M
2996 CMP_R_I
16715 JZ_I
2996 CMP_R_I
1916 JZ_I
3264 MOV_R_M
3264 MOV_R_M
3189 MOV_R_R
4285 ROR_R_I
4669 MOV_M_I
4669 MOV_M_I
3257 MOV_R_P
16762 JS_I
3323 LEA_R_P
3330 LEA_R_M
3323 LEA_R_P
9338 CALL_NEAR_P
3264 MOV_R_M
1916 JZ_I
3264 MOV_R_M
3264 MOV_R_M
18215 MOVZX_B_R_M
4158 SHR_R_I
1314 CMP_R_M
1925 JNZ_I
3330 LEA_R_M
1314 CMP_R_M
1934 JBE_I
3013 CMP_M_I
16724 JNZ_I
3330 LEA_R_M
3997 MOV_R_I
9018 DIV_R
933 SUB_R_R
3330 LEA_R_M
3206 MOV_M_R
2909 AND_R_I
4669 MOV_M_I
8427 JMP_I
1262 CMP_M_R
1925 JNZ_I
2810 ADD_M_I
3206 MOV_M_R
2810 ADD_M_I
3206 MOV_M_R
3264 MOV_R_M
3264 MOV_R_M
8353 CALL_NEAR_I
2996 CMP_R_I
3206 MOV_M_R
3206 MOV_M_R
3206 MOV_M_R
16715 JZ_I
3330 LEA_R_M
3206 MOV_M_R
3206 MOV_M_R
3206 MOV_M_R
8353 CALL_NEAR_I
3264 MOV_R_M
3264 MOV_R_M
3189 MOV_R_R
3330 LEA_R_M
3206 MOV_M_R
3189 MOV_R_R
8427 JMP_I
3330 LEA_R_M
18244 MOVZX_W_R_M
3206 MOV_M_R
3264 MOV_R_M
3330 LEA_R_M
3264 MOV_R_M
1925 JNZ_I
3013 CMP_M_I
1916 JZ_I
3264 MOV_R_M
1245 CMP_R_R
1907 JNB_I
3264 MOV_R_M
3189 MOV_R_R
3330 LEA_R_M
3264 MOV_R_M
3264 MOV_R_M
8427 JMP_I
3264 MOV_R_M
16724 JNZ_I
1245 CMP_R_R
1898 JB_I
3264 MOV_R_M
1925 JNZ_I
1245 CMP_R_R
1916 JZ_I
3189 MOV_R_R
1314 CMP_R_M
3189 MOV_R_R
16724 JNZ_I
3264 MOV_R_M
3206 MOV_M_R
933 SUB_R_R
3330 LEA_R_M
8353 CALL_NEAR_I
3264 MOV_R_M
16715 JZ_I
3264 MOV_R_M
3323 LEA_R_P
9338 CALL_NEAR_P
16715 JZ_I
3264 MOV_R_M
2909 AND_R_I
3264 MOV_R_M
16715 JZ_I
8611 TEST_P_I
16724 JNZ_I
3264 MOV_R_M
173 ADD_R_M
3330 LEA_R_M
9345 CALL_NEAR_M
2263 CMP_P_I
1925 JNZ_I
8353 CALL_NEAR_I
3997 MOV_R_I
1328 CMP_R_I
1916 JZ_I
4619 MOV_P_I
3330 LEA_R_M
1925 JNZ_I
3264 MOV_R_M
3264 MOV_R_M
1925 JNZ_I
3257 MOV_R_P
16724 JNZ_I
2955 SUB_M_I
2793 ADD_R_I
1262 CMP_M_R
16742 JNBE_I
3013 CMP_M_I
1916 JZ_I
2455 SUB_M_I
2955 SUB_M_I
16771 JNS_I
3264 MOV_R_M
16724 JNZ_I
3257 MOV_R_P
16715 JZ_I
8611 TEST_P_I
1925 JNZ_I
8362 JMP_I
3206 MOV_M_R
3033 TEST_R_R
3323 LEA_R_P
3323 LEA_R_P
1245 CMP_R_R
1907 JNB_I
9345 CALL_NEAR_M
8353 CALL_NEAR_I
4669 MOV_M_I
1916 JZ_I
3257 MOV_R_P
3257 MOV_R_P
16715 JZ_I
3323 LEA_R_P
3323 LEA_R_P
3264 MOV_R_M
933 SUB_R_R
3199 MOV_P_R
1916 JZ_I
3264 MOV_R_M
16816 JLE_I
3264 MOV_R_M
1262 CMP_M_R
16742 JNBE_I
3257 MOV_R_P
4662 MOV_P_I
1245 CMP_R_R
16724 JNZ_I
3264 MOV_R_M
16724 JNZ_I
3264 MOV_R_M
3257 MOV_R_P
3189 MOV_R_R
16715 JZ_I
3323 LEA_R_P
3323 LEA_R_P
3264 MOV_R_M
933 SUB_R_R
16724 JNZ_I
4669 MOV_M_I
16724 JNZ_I
2409 AND_R_I
2996 CMP_R_I
16715 JZ_I
3264 MOV_R_M
16715 JZ_I
2793 ADD_R_I
1898 JB_I
8353 CALL_NEAR_I
3257 MOV_R_P
3997 MOV_R_I
3997 MOV_R_I
3189 MOV_R_R
Exiting @ tick 5942533518 because exiting with last active thread context.
[ perf record: Woken up 1 times to write data ]
[ perf record: Captured and wrote 0.143 MB perf.data (3543 samples) ]
34 ucacbbl@eden% ls -ltr
total 796128
-rw-------  1 ucacbbl csstaff        27 Apr 10  2017 test.seq
-rw-------  1 ucacbbl crest      810440 Mar 26  2021 hello64-static
-rw-------  1 ucacbbl crest       31157 Jul  5 15:30 script_gem5_clone.txt
-rw-------  1 ucacbbl crest       16489 Jul  6 16:37 script_gem5_scons_6-jul-2023.txt
-rw-------  1 ucacbbl crest      614671 Jul  7 16:04 script_gem5_scons_7-jul-2023.txt
-rw-------  1 ucacbbl crest         238 Jul 10 17:22 gem5_setup
-rw-------  1 ucacbbl crest      211094 Jul 10 17:56 script_gem5_unittests_10-jul-2023.txt
-rw-------  1 ucacbbl crest       31062 Jul 10 20:53 script_gem5_helloworld_10-jul-2023.txt
drwx--S---  3 ucacbbl crest        2048 Jul 10 22:05 gem5-resources
-rwx------  1 ucacbbl crest        8360 Jul 10 22:09 x86-hello64-static
-rw-------  1 ucacbbl crest        4143 Jul 11 14:24 script_gem5_helloworld_11-jul-2023.txt
-rw-------  1 ucacbbl crest        1676 Jul 12 09:51 script_wget_hello64-static_12-jul-2023.txt
-rw-------  1 ucacbbl crest      671296 Jul 12 14:06 script_gem5_pull_12-jul-2023.txt
-rw-------  1 ucacbbl crest      691909 Jul 13 18:07 script_gem5_after_hooks.txt
-rw-------  1 ucacbbl crest      195038 Jul 14 09:31 script_gem5_hello-custom-binary.txt
-rw-------  1 ucacbbl crest      445693 Jul 26 08:02 script_gem5_scons_decode-method.cc.inc.txt
-rwx------  1 ucacbbl crest         148 Jul 26 08:09 rsync.bat
-rw-------  1 ucacbbl crest         736 Jul 26 09:48 instrument.awk
-rw-------  1 ucacbbl crest     1403313 Jul 26 09:48 decode-method.cc.inc_new
-rwx------  1 ucacbbl crest   762763320 Jul 26 09:59 gem5.opt_nogprof
-rw-------  1 ucacbbl crest        8056 Jul 26 10:07 script_gem5_scons_decode-method.cc.inc_2.txt
-rwx------  1 ucacbbl csstaff   1707136 Jul 26 11:31 main
-rw-------  1 ucacbbl crest        3730 Jul 26 11:36 test.seq_error_sorted
-rw-------  1 ucacbbl crest         594 Jul 26 13:12 x86_only.bat
drwx--S---  2 ucacbbl crest        2048 Jul 26 13:32 m5out
-rw-------  1 ucacbbl crest      205930 Jul 26 13:42 decode-method_test.seq.out
-rwx------  1 ucacbbl crest        1067 Jul 26 14:06 decode-method.bat
-rwx------  1 ucacbbl crest        1565 Jul 26 14:29 rand_decode-method.bat
-rw-------  1 ucacbbl crest        3900 Jul 26 18:33 rand_decode-method.out
-rw-------  1 ucacbbl csstaff      1873 Jul 26 20:35 rand_decode-method.dat
-rw-------  1 ucacbbl csstaff    268470 Jul 27 11:50 rand_decode-method.srt
drwx--S---  2 ucacbbl crest        2048 Jul 27 12:03 RCS
-rw-------  1 ucacbbl crest        3041 Jul 27 12:03 rand_decode-method.gnu
-rw-------  1 ucacbbl crest        7847 Jul 27 14:15 debug-help.txt
-rw-------  1 ucacbbl crest         328 Jul 27 15:10 Decode_example.txt~
-rw-------  1 ucacbbl crest         431 Jul 27 15:12 Decode_example.txt
-rw-------  1 ucacbbl crest      306791 Jul 27 16:38 script_gem5_scons_gprof.txt
-rw-------  1 ucacbbl crest    11579589 Jul 27 16:41 hello64-static.gprof.gmon
-rw-------  1 ucacbbl crest     9483136 Jul 27 17:03 hello64-static.gprof.out
-rwx------  1 ucacbbl crest        1585 Jul 27 19:04 rand050_gprof.bat~
-rwx------  1 ucacbbl crest        1584 Jul 27 19:05 rand050_gprof.bat
-rw-------  1 ucacbbl crest        6271 Jul 27 19:06 rand_dna.awk_ss.ps
-rw-------  1 ucacbbl crest    11633454 Jul 27 19:06 rand050.gmon
-rw-------  1 ucacbbl crest    10555288 Jul 27 19:18 rand050.gmon.txt
-rw-------  1 ucacbbl crest           0 Jul 27 19:40 t
-rw-------  1 ucacbbl crest         485 Jul 28 09:40 rand_decode-method.srt_10
-rw-------  1 ucacbbl crest         253 Jul 28 15:02 debug_example2.txt
drwx--S---  2 ucacbbl crest        2048 Jul 29 10:16 rnafold_example
-rw-------  1 ucacbbl crest         309 Jul 29 14:34 benchmarks~
-rw-------  1 ucacbbl crest         384 Jul 29 14:38 benchmarks
drwx--S--- 17 ucacbbl crest        6144 Jul 29 14:40 gem5-ssbse-challenge-2023
-rw-------  1 ucacbbl crest       61840 Aug  2 10:07 perf.data.old
-rw-------  1 ucacbbl crest      157092 Aug  2 10:08 perf.data
-rw-------  1 ucacbbl crest       57344 Aug  2 10:08 typescript
35 ucacbbl@eden% echo "looks good, lets play with perf.data outside script" `dat e`
looks good, lets play with perf.data outside script Wed 2 Aug 10:09:49 BST 2023
36 ucacbbl@eden% exit
exit

Script done on Wed 02 Aug 2023 10:09:51 BST
